
     RDKit          3D

 58 61  0  0  0  0  0  0  0  0999 V2000
   -5.2750    2.3618   -0.3091 C   0  0  0  0  0  0  0  0  0  0  0  0
   -4.7301    1.0673   -0.0737 O   0  0  0  0  0  0  0  0  0  0  0  0
   -3.3922    0.9695    0.1948 C   0  0  0  0  0  0  0  0  0  0  0  0
   -2.5067    2.0544    0.1058 C   0  0  0  0  0  0  0  0  0  0  0  0
   -1.1566    1.9504    0.4226 C   0  0  0  0  0  0  0  0  0  0  0  0
   -0.3958    3.0407    0.3136 N   0  0  0  0  0  0  0  0  0  0  0  0
    0.8982    2.9194    0.6419 C   0  0  0  0  0  0  0  0  0  0  0  0
    1.7529    4.1460    0.5548 C   0  0  0  0  0  0  0  0  0  0  0  0
    1.4771    1.7915    1.0765 N   0  0  0  0  0  0  0  0  0  0  0  0
    0.7194    0.6899    1.1614 C   0  0  0  0  0  0  0  0  0  0  0  0
    1.2913   -0.5121    1.6109 N   0  0  0  0  0  0  0  0  0  0  0  0
    2.7162   -0.6000    1.9538 C   0  0  2  0  0  0  0  0  0  0  0  0
    3.1042    0.2883    3.1395 C   0  0  0  0  0  0  0  0  0  0  0  0
    3.6042   -0.5477    0.7191 C   0  0  0  0  0  0  0  0  0  0  0  0
    4.3371    0.5965    0.3632 C   0  0  0  0  0  0  0  0  0  0  0  0
    5.1224    0.6353   -0.7939 C   0  0  0  0  0  0  0  0  0  0  0  0
    5.9305    1.7492   -1.0584 N   0  0  0  0  0  0  0  0  0  0  0  0
    5.2573   -0.5251   -1.5559 C   0  0  0  0  0  0  0  0  0  0  0  0
    4.5369   -1.6852   -1.2372 C   0  0  0  0  0  0  0  0  0  0  0  0
    4.6276   -2.9159   -2.1027 C   0  0  0  0  0  0  0  0  0  0  0  0
    4.7556   -4.0633   -1.3768 F   0  0  0  0  0  0  0  0  0  0  0  0
    3.5167   -3.0874   -2.8714 F   0  0  0  0  0  0  0  0  0  0  0  0
    5.6809   -2.9012   -2.9648 F   0  0  0  0  0  0  0  0  0  0  0  0
    3.7043   -1.6801   -0.1068 C   0  0  0  0  0  0  0  0  0  0  0  0
   -0.6543    0.7204    0.8494 C   0  0  0  0  0  0  0  0  0  0  0  0
   -1.5382   -0.3799    0.9424 C   0  0  0  0  0  0  0  0  0  0  0  0
   -2.8893   -0.2728    0.5937 C   0  0  0  0  0  0  0  0  0  0  0  0
   -3.5675   -1.4530    0.7368 O   0  0  0  0  0  0  0  0  0  0  0  0
   -4.7043   -1.7096   -0.0754 C   0  0  1  0  0  0  0  0  0  0  0  0
   -4.4303   -1.7423   -1.5637 C   0  0  0  0  0  0  0  0  0  0  0  0
   -5.5664   -2.6031   -2.0741 C   0  0  0  0  0  0  0  0  0  0  0  0
   -5.8475   -3.5667   -1.0513 O   0  0  0  0  0  0  0  0  0  0  0  0
   -5.1679   -3.1479    0.1443 C   0  0  0  0  0  0  0  0  0  0  0  0
   -6.3577    2.2502   -0.4246 H   0  0  0  0  0  0  0  0  0  0  0  0
   -5.0992    3.0290    0.5429 H   0  0  0  0  0  0  0  0  0  0  0  0
   -4.8843    2.7899   -1.2398 H   0  0  0  0  0  0  0  0  0  0  0  0
   -2.8509    3.0330   -0.2137 H   0  0  0  0  0  0  0  0  0  0  0  0
    1.4097    4.7984   -0.2540 H   0  0  0  0  0  0  0  0  0  0  0  0
    2.7946    3.8776    0.3571 H   0  0  0  0  0  0  0  0  0  0  0  0
    1.7053    4.6976    1.4990 H   0  0  0  0  0  0  0  0  0  0  0  0
    1.0415   -1.2469    0.9561 H   0  0  0  0  0  0  0  0  0  0  0  0
    2.8444   -1.6187    2.3476 H   0  0  0  0  0  0  0  0  0  0  0  0
    2.4377    0.1076    3.9890 H   0  0  0  0  0  0  0  0  0  0  0  0
    3.0628    1.3562    2.9199 H   0  0  0  0  0  0  0  0  0  0  0  0
    4.1258    0.0672    3.4640 H   0  0  0  0  0  0  0  0  0  0  0  0
    4.2783    1.4873    0.9847 H   0  0  0  0  0  0  0  0  0  0  0  0
    6.2086    1.8367   -2.0313 H   0  0  0  0  0  0  0  0  0  0  0  0
    5.5582    2.6193   -0.6878 H   0  0  0  0  0  0  0  0  0  0  0  0
    5.9244   -0.5258   -2.4160 H   0  0  0  0  0  0  0  0  0  0  0  0
    3.1410   -2.5815    0.1406 H   0  0  0  0  0  0  0  0  0  0  0  0
   -1.1732   -1.3409    1.2949 H   0  0  0  0  0  0  0  0  0  0  0  0
   -5.5442   -1.0564    0.1821 H   0  0  0  0  0  0  0  0  0  0  0  0
   -4.4099   -0.7576   -2.0368 H   0  0  0  0  0  0  0  0  0  0  0  0
   -3.4624   -2.2208   -1.7617 H   0  0  0  0  0  0  0  0  0  0  0  0
   -5.3164   -3.1176   -3.0080 H   0  0  0  0  0  0  0  0  0  0  0  0
   -6.4746   -2.0095   -2.2309 H   0  0  0  0  0  0  0  0  0  0  0  0
   -5.8454   -3.2334    1.0002 H   0  0  0  0  0  0  0  0  0  0  0  0
   -4.3248   -3.8280    0.3169 H   0  0  0  0  0  0  0  0  0  0  0  0
  1  2  1  0
  2  3  1  0
  3  4  2  0
  4  5  1  0
  5  6  2  0
  6  7  1  0
  7  8  1  0
  7  9  2  0
  9 10  1  0
 10 11  1  0
 11 12  1  0
 12 13  1  0
 12 14  1  0
 14 15  2  0
 15 16  1  0
 16 17  1  0
 16 18  2  0
 18 19  1  0
 19 20  1  0
 20 21  1  0
 20 22  1  0
 20 23  1  0
 19 24  2  0
 10 25  2  0
 25 26  1  0
 26 27  2  0
 27 28  1  0
 28 29  1  0
 29 30  1  0
 30 31  1  0
 31 32  1  0
 32 33  1  0
 27  3  1  0
 33 29  1  0
 25  5  1  0
 24 14  1  0
  1 34  1  0
  1 35  1  0
  1 36  1  0
  4 37  1  0
  8 38  1  0
  8 39  1  0
  8 40  1  0
 11 41  1  0
 12 42  1  1
 13 43  1  0
 13 44  1  0
 13 45  1  0
 15 46  1  0
 17 47  1  0
 17 48  1  0
 18 49  1  0
 24 50  1  0
 26 51  1  0
 29 52  1  6
 30 53  1  0
 30 54  1  0
 31 55  1  0
 31 56  1  0
 33 57  1  0
 33 58  1  0
M  END
$$$$
