
     RDKit          3D

 64 68  0  0  0  0  0  0  0  0999 V2000
    3.3350   -1.3477   -2.1305 N   0  0  0  0  0  0  0  0  0  0  0  0
    2.6635   -1.2106   -0.9093 C   0  0  0  0  0  0  0  0  0  0  0  0
    1.3631   -0.8597   -1.0086 N   0  0  0  0  0  0  0  0  0  0  0  0
    0.6584   -0.6907    0.1372 C   0  0  0  0  0  0  0  0  0  0  0  0
   -0.6756   -0.3110    0.0532 N   0  0  0  0  0  0  0  0  0  0  0  0
   -1.1892    0.0179   -1.2733 C   0  0  0  0  0  0  0  0  0  0  0  0
   -2.5269    0.7420   -1.1287 C   0  0  0  0  0  0  0  0  0  0  0  0
   -3.6031   -0.1520   -0.4723 C   0  0  0  0  0  0  0  0  0  0  0  0
   -4.7772    0.6405    0.2165 C   0  0  0  0  0  0  0  0  0  0  0  0
   -4.2599    1.3043    1.4301 N   0  0  0  0  0  0  0  0  0  0  0  0
   -5.3740    1.7403   -0.7013 C   0  0  0  0  0  0  0  0  0  0  0  0
   -6.3845    1.1616   -1.6889 C   0  0  0  0  0  0  0  0  0  0  0  0
   -7.5083    0.4821   -1.0449 N   0  0  0  0  0  0  0  0  0  0  0  0
   -7.3014    0.1967    0.3743 C   0  0  0  0  0  0  0  0  0  0  0  0
   -5.9015   -0.3526    0.6338 C   0  0  0  0  0  0  0  0  0  0  0  0
   -2.9438   -1.2067    0.4529 C   0  0  0  0  0  0  0  0  0  0  0  0
   -1.6296   -0.7380    1.0794 C   0  0  0  0  0  0  0  0  0  0  0  0
    1.3121   -0.8716    1.3620 C   0  0  0  0  0  0  0  0  0  0  0  0
    2.6133   -1.2297    1.4982 N   0  0  0  0  0  0  0  0  0  0  0  0
    3.2921   -1.3814    0.3371 C   0  0  0  0  0  0  0  0  0  0  0  0
    4.7095   -1.7395    0.4797 C   0  0  0  0  0  0  0  0  0  0  0  0
    5.0681   -3.0998    0.5535 C   0  0  0  0  0  0  0  0  0  0  0  0
    6.4031   -3.4880    0.6695 C   0  0  0  0  0  0  0  0  0  0  0  0
    7.4031   -2.5232    0.7191 C   0  0  0  0  0  0  0  0  0  0  0  0
    7.0687   -1.1699    0.6615 C   0  0  0  0  0  0  0  0  0  0  0  0
    5.7273   -0.7566    0.5492 C   0  0  0  0  0  0  0  0  0  0  0  0
    5.4230    0.6875    0.5099 C   0  0  0  0  0  0  0  0  0  0  0  0
    5.3006    1.3172   -0.7440 C   0  0  0  0  0  0  0  0  0  0  0  0
    4.9954    2.6737   -0.8453 C   0  0  0  0  0  0  0  0  0  0  0  0
    4.8110    3.4289    0.3088 C   0  0  0  0  0  0  0  0  0  0  0  0
    4.9330    2.8303    1.5663 C   0  0  0  0  0  0  0  0  0  0  0  0
    4.6939    3.8473    2.9472 Cl  0  0  0  0  0  0  0  0  0  0  0  0
    5.2402    1.4637    1.6761 C   0  0  0  0  0  0  0  0  0  0  0  0
    5.4063    0.7278    3.2434 Cl  0  0  0  0  0  0  0  0  0  0  0  0
    2.6349   -1.2489   -2.8610 H   0  0  0  0  0  0  0  0  0  0  0  0
    3.8308   -2.2308   -2.1820 H   0  0  0  0  0  0  0  0  0  0  0  0
   -1.3073   -0.8881   -1.8810 H   0  0  0  0  0  0  0  0  0  0  0  0
   -0.5014    0.6912   -1.8004 H   0  0  0  0  0  0  0  0  0  0  0  0
   -2.3648    1.6560   -0.5458 H   0  0  0  0  0  0  0  0  0  0  0  0
   -2.8706    1.0562   -2.1215 H   0  0  0  0  0  0  0  0  0  0  0  0
   -4.0592   -0.7255   -1.2932 H   0  0  0  0  0  0  0  0  0  0  0  0
   -3.5943    2.0341    1.1757 H   0  0  0  0  0  0  0  0  0  0  0  0
   -5.0192    1.7818    1.9159 H   0  0  0  0  0  0  0  0  0  0  0  0
   -4.5977    2.2887   -1.2444 H   0  0  0  0  0  0  0  0  0  0  0  0
   -5.8879    2.5044   -0.0995 H   0  0  0  0  0  0  0  0  0  0  0  0
   -6.7723    1.9664   -2.3241 H   0  0  0  0  0  0  0  0  0  0  0  0
   -5.8867    0.4533   -2.3606 H   0  0  0  0  0  0  0  0  0  0  0  0
   -8.3644    1.0238   -1.1616 H   0  0  0  0  0  0  0  0  0  0  0  0
   -8.0464   -0.5406    0.6928 H   0  0  0  0  0  0  0  0  0  0  0  0
   -7.4752    1.0982    0.9739 H   0  0  0  0  0  0  0  0  0  0  0  0
   -5.8021   -1.2981    0.0835 H   0  0  0  0  0  0  0  0  0  0  0  0
   -5.8149   -0.6228    1.6944 H   0  0  0  0  0  0  0  0  0  0  0  0
   -3.6237   -1.5410    1.2432 H   0  0  0  0  0  0  0  0  0  0  0  0
   -2.7327   -2.1010   -0.1505 H   0  0  0  0  0  0  0  0  0  0  0  0
   -1.2402   -1.5762    1.6700 H   0  0  0  0  0  0  0  0  0  0  0  0
   -1.8022    0.0922    1.7722 H   0  0  0  0  0  0  0  0  0  0  0  0
    0.7991   -0.7069    2.3031 H   0  0  0  0  0  0  0  0  0  0  0  0
    4.2943   -3.8652    0.5325 H   0  0  0  0  0  0  0  0  0  0  0  0
    6.6596   -4.5425    0.7309 H   0  0  0  0  0  0  0  0  0  0  0  0
    8.4439   -2.8211    0.8164 H   0  0  0  0  0  0  0  0  0  0  0  0
    7.8631   -0.4277    0.7178 H   0  0  0  0  0  0  0  0  0  0  0  0
    5.4282    0.7358   -1.6571 H   0  0  0  0  0  0  0  0  0  0  0  0
    4.8941    3.1359   -1.8242 H   0  0  0  0  0  0  0  0  0  0  0  0
    4.5695    4.4856    0.2238 H   0  0  0  0  0  0  0  0  0  0  0  0
  1  2  1  0
  2  3  1  0
  3  4  2  0
  4  5  1  0
  5  6  1  0
  6  7  1  0
  7  8  1  0
  8  9  1  0
  9 10  1  0
  9 11  1  0
 11 12  1  0
 12 13  1  0
 13 14  1  0
 14 15  1  0
  8 16  1  0
 16 17  1  0
  4 18  1  0
 18 19  2  0
 19 20  1  0
 20 21  1  0
 21 22  2  0
 22 23  1  0
 23 24  2  0
 24 25  1  0
 25 26  2  0
 26 27  1  0
 27 28  2  0
 28 29  1  0
 29 30  2  0
 30 31  1  0
 31 32  1  0
 31 33  2  0
 33 34  1  0
 20  2  2  0
 26 21  1  0
 33 27  1  0
 17  5  1  0
 15  9  1  0
  1 35  1  0
  1 36  1  0
  6 37  1  0
  6 38  1  0
  7 39  1  0
  7 40  1  0
  8 41  1  0
 10 42  1  0
 10 43  1  0
 11 44  1  0
 11 45  1  0
 12 46  1  0
 12 47  1  0
 13 48  1  0
 14 49  1  0
 14 50  1  0
 15 51  1  0
 15 52  1  0
 16 53  1  0
 16 54  1  0
 17 55  1  0
 17 56  1  0
 18 57  1  0
 22 58  1  0
 23 59  1  0
 24 60  1  0
 25 61  1  0
 28 62  1  0
 29 63  1  0
 30 64  1  0
M  END
$$$$
