
     RDKit          3D

 67 71  0  0  0  0  0  0  0  0999 V2000
    7.3860    1.6430   -1.2810 C   0  0  2  0  0  0  0  0  0  0  0  0
    6.9120    0.2740   -1.0880 N   0  0  0  0  0  0  0  0  0  0  0  0
    6.1090   -0.1970   -2.2240 C   0  0  2  0  0  0  0  0  0  0  0  0
    4.6280   -0.4080   -1.9020 C   0  0  1  0  0  0  0  0  0  0  0  0
    4.4180   -1.3890   -0.7250 C   0  0  2  0  0  0  0  0  0  0  0  0
    4.5140   -2.7730   -1.2520 N   0  0  0  0  0  0  0  0  0  0  0  0
    2.9860   -1.2590   -0.0970 C   0  0  2  0  0  0  0  0  0  0  0  0
    1.8420   -1.4460   -1.1100 C   0  0  2  0  0  0  0  0  0  0  0  0
    0.4920   -1.5640   -0.3950 C   0  0  2  0  0  0  0  0  0  0  0  0
    0.3980   -0.6570    0.7600 N   0  0  0  0  0  0  0  0  0  0  0  0
   -0.9250   -0.3550    1.1390 C   0  0  0  0  0  0  0  0  0  0  0  0
   -1.8730   -1.3670    1.3360 C   0  0  0  0  0  0  0  0  0  0  0  0
   -3.1640   -1.1550    1.6920 N   0  0  0  0  0  0  0  0  0  0  0  0
   -3.5000    0.1460    1.8690 C   0  0  0  0  0  0  0  0  0  0  0  0
   -4.9010    0.3780    2.2460 C   0  0  0  0  0  0  0  0  0  0  0  0
   -5.2480    0.3800    3.6110 C   0  0  0  0  0  0  0  0  0  0  0  0
   -6.5620    0.6100    4.0200 C   0  0  0  0  0  0  0  0  0  0  0  0
   -7.5530    0.8340    3.0710 C   0  0  0  0  0  0  0  0  0  0  0  0
   -7.2320    0.8230    1.7130 C   0  0  0  0  0  0  0  0  0  0  0  0
   -5.9120    0.5970    1.2780 C   0  0  0  0  0  0  0  0  0  0  0  0
   -5.6300    0.5740   -0.1710 C   0  0  0  0  0  0  0  0  0  0  0  0
   -5.5130   -0.6740   -0.8140 C   0  0  0  0  0  0  0  0  0  0  0  0
   -5.2480   -0.7630   -2.1800 C   0  0  0  0  0  0  0  0  0  0  0  0
   -5.0960    0.3970   -2.9320 C   0  0  0  0  0  0  0  0  0  0  0  0
   -5.2060    1.6490   -2.3210 C   0  0  0  0  0  0  0  0  0  0  0  0
   -5.0030    3.0410   -3.3290 Cl  0  0  0  0  0  0  0  0  0  0  0  0
   -5.4720    1.7450   -0.9440 C   0  0  0  0  0  0  0  0  0  0  0  0
   -5.5910    3.3040   -0.1810 Cl  0  0  0  0  0  0  0  0  0  0  0  0
   -2.5640    1.1890    1.7090 C   0  0  0  0  0  0  0  0  0  0  0  0
   -2.8940    2.5410    1.9110 N   0  0  0  0  0  0  0  0  0  0  0  0
   -1.2890    0.9310    1.3460 N   0  0  0  0  0  0  0  0  0  0  0  0
    1.2850    0.5060    0.7270 C   0  0  1  0  0  0  0  0  0  0  0  0
    2.7500    0.0490    0.6950 C   0  0  2  0  0  0  0  0  0  0  0  0
    5.5380   -1.2180    0.3360 C   0  0  1  0  0  0  0  0  0  0  0  0
    6.2570    0.1270    0.2160 C   0  0  1  0  0  0  0  0  0  0  0  0
    8.0360    1.9480   -0.4530 H   0  0  0  0  0  0  0  0  0  0  0  0
    6.5580    2.3560   -1.3530 H   0  0  0  0  0  0  0  0  0  0  0  0
    7.9880    1.7170   -2.1940 H   0  0  0  0  0  0  0  0  0  0  0  0
    6.5420   -1.1460   -2.5620 H   0  0  0  0  0  0  0  0  0  0  0  0
    6.1910    0.4800   -3.0850 H   0  0  0  0  0  0  0  0  0  0  0  0
    4.1810    0.5690   -1.6840 H   0  0  0  0  0  0  0  0  0  0  0  0
    4.1150   -0.7700   -2.8030 H   0  0  0  0  0  0  0  0  0  0  0  0
    5.4450   -2.9260   -1.6420 H   0  0  0  0  0  0  0  0  0  0  0  0
    4.4330   -3.4350   -0.4800 H   0  0  0  0  0  0  0  0  0  0  0  0
    2.8880   -2.0750    0.6370 H   0  0  0  0  0  0  0  0  0  0  0  0
    1.9850   -2.3400   -1.7280 H   0  0  0  0  0  0  0  0  0  0  0  0
    1.8130   -0.5930   -1.8000 H   0  0  0  0  0  0  0  0  0  0  0  0
    0.3750   -2.5960   -0.0420 H   0  0  0  0  0  0  0  0  0  0  0  0
   -0.3020   -1.3700   -1.1280 H   0  0  0  0  0  0  0  0  0  0  0  0
   -1.6050   -2.4120    1.2220 H   0  0  0  0  0  0  0  0  0  0  0  0
   -4.4850    0.1900    4.3650 H   0  0  0  0  0  0  0  0  0  0  0  0
   -6.8110    0.6060    5.0780 H   0  0  0  0  0  0  0  0  0  0  0  0
   -8.5790    1.0100    3.3850 H   0  0  0  0  0  0  0  0  0  0  0  0
   -8.0250    0.9900    0.9850 H   0  0  0  0  0  0  0  0  0  0  0  0
   -5.6190   -1.5920   -0.2350 H   0  0  0  0  0  0  0  0  0  0  0  0
   -5.1560   -1.7380   -2.6530 H   0  0  0  0  0  0  0  0  0  0  0  0
   -4.8880    0.3220   -3.9970 H   0  0  0  0  0  0  0  0  0  0  0  0
   -3.2600    2.6610    2.8510 H   0  0  0  0  0  0  0  0  0  0  0  0
   -3.6390    2.8060    1.2690 H   0  0  0  0  0  0  0  0  0  0  0  0
    1.0680    1.1240   -0.1550 H   0  0  0  0  0  0  0  0  0  0  0  0
    1.1630    1.1410    1.6140 H   0  0  0  0  0  0  0  0  0  0  0  0
    3.3410    0.8810    0.3010 H   0  0  0  0  0  0  0  0  0  0  0  0
    3.0960   -0.1060    1.7250 H   0  0  0  0  0  0  0  0  0  0  0  0
    5.1410   -1.3400    1.3510 H   0  0  0  0  0  0  0  0  0  0  0  0
    6.2990   -2.0060    0.2320 H   0  0  0  0  0  0  0  0  0  0  0  0
    7.0180    0.1870    1.0030 H   0  0  0  0  0  0  0  0  0  0  0  0
    5.5520    0.9450    0.3980 H   0  0  0  0  0  0  0  0  0  0  0  0
  1  2  1  0
  1 36  1  1
  1 37  1  0
  1 38  1  0
  2  3  1  0
  2 35  1  0
  3  4  1  0
  3 39  1  6
  3 40  1  0
  4  5  1  0
  4 41  1  1
  4 42  1  0
  5  6  1  6
  5  7  1  0
  5 34  1  0
  6 43  1  0
  6 44  1  0
  7  8  1  0
  7 33  1  0
  7 45  1  1
  8  9  1  0
  8 46  1  6
  8 47  1  0
  9 10  1  0
  9 48  1  1
  9 49  1  0
 10 11  1  0
 10 32  1  0
 11 12  1  0
 11 31  2  0
 12 13  2  0
 12 50  1  0
 13 14  1  0
 14 15  1  0
 14 29  2  0
 15 16  2  0
 15 20  1  0
 16 17  1  0
 16 51  1  0
 17 18  2  0
 17 52  1  0
 18 19  1  0
 18 53  1  0
 19 20  2  0
 19 54  1  0
 20 21  1  0
 21 22  2  0
 21 27  1  0
 22 23  1  0
 22 55  1  0
 23 24  2  0
 23 56  1  0
 24 25  1  0
 24 57  1  0
 25 26  1  0
 25 27  2  0
 27 28  1  0
 29 30  1  0
 29 31  1  0
 30 58  1  0
 30 59  1  0
 32 33  1  0
 32 60  1  6
 32 61  1  0
 33 62  1  6
 33 63  1  0
 34 35  1  0
 34 64  1  1
 34 65  1  0
 35 66  1  1
 35 67  1  0
M  END
$$$$
