
     RDKit          3D

 64 68  0  0  0  0  0  0  0  0999 V2000
   -2.5190    2.7826   -0.9344 N   0  0  0  0  0  0  0  0  0  0  0  0
   -1.9845    1.4990   -1.0788 C   0  0  0  0  0  0  0  0  0  0  0  0
   -0.7571    1.3279   -0.5417 N   0  0  0  0  0  0  0  0  0  0  0  0
   -0.1809    0.1036   -0.6267 C   0  0  0  0  0  0  0  0  0  0  0  0
    1.0997   -0.0806   -0.0877 N   0  0  0  0  0  0  0  0  0  0  0  0
    1.6345    1.1071    0.5978 C   0  0  0  0  0  0  0  0  0  0  0  0
    2.9639    0.8065    1.3017 C   0  0  0  0  0  0  0  0  0  0  0  0
    3.7450   -0.2792    0.5491 C   0  0  0  0  0  0  0  0  0  0  0  0
    5.0940   -0.5015    1.1083 N   0  0  0  0  0  0  0  0  0  0  0  0
    5.9442    0.6993    1.1046 C   0  0  0  0  0  0  0  0  0  0  0  0
    7.3872    0.2054    0.9983 C   0  0  0  0  0  0  0  0  0  0  0  0
    7.2759   -1.3135    0.9429 C   0  0  0  0  0  0  0  0  0  0  0  0
    8.3391   -1.9380    0.1622 N   0  0  0  0  0  0  0  0  0  0  0  0
    5.8660   -1.5263    0.3877 C   0  0  0  0  0  0  0  0  0  0  0  0
    2.9161   -1.5836    0.5637 C   0  0  0  0  0  0  0  0  0  0  0  0
    1.4013   -1.3494    0.5712 C   0  0  0  0  0  0  0  0  0  0  0  0
   -0.8616   -0.9067   -1.3176 C   0  0  0  0  0  0  0  0  0  0  0  0
   -2.0979   -0.7752   -1.8644 N   0  0  0  0  0  0  0  0  0  0  0  0
   -2.6676    0.4457   -1.7114 C   0  0  0  0  0  0  0  0  0  0  0  0
   -4.0218    0.5808   -2.2702 C   0  0  0  0  0  0  0  0  0  0  0  0
   -4.1761    0.6456   -3.6698 C   0  0  0  0  0  0  0  0  0  0  0  0
   -5.4321    0.8165   -4.2512 C   0  0  0  0  0  0  0  0  0  0  0  0
   -6.5585    0.9212   -3.4442 C   0  0  0  0  0  0  0  0  0  0  0  0
   -6.4311    0.8384   -2.0567 C   0  0  0  0  0  0  0  0  0  0  0  0
   -5.1738    0.6585   -1.4474 C   0  0  0  0  0  0  0  0  0  0  0  0
   -5.1024    0.5314    0.0201 C   0  0  0  0  0  0  0  0  0  0  0  0
   -5.4042    1.6166    0.8552 C   0  0  0  0  0  0  0  0  0  0  0  0
   -5.3115    1.4998    2.2430 C   0  0  0  0  0  0  0  0  0  0  0  0
   -4.9204    0.2906    2.8185 C   0  0  0  0  0  0  0  0  0  0  0  0
   -4.6238   -0.8159    2.0116 C   0  0  0  0  0  0  0  0  0  0  0  0
   -4.1774   -2.1235    2.6153 C   0  0  0  0  0  0  0  0  0  0  0  0
   -4.4526   -2.2262    3.9484 F   0  0  0  0  0  0  0  0  0  0  0  0
   -2.8335   -2.3247    2.4979 F   0  0  0  0  0  0  0  0  0  0  0  0
   -4.7694   -3.2052    2.0357 F   0  0  0  0  0  0  0  0  0  0  0  0
   -4.7174   -0.6820    0.6158 C   0  0  0  0  0  0  0  0  0  0  0  0
   -1.7988    3.3615   -0.5139 H   0  0  0  0  0  0  0  0  0  0  0  0
   -2.8547    3.1463   -1.8183 H   0  0  0  0  0  0  0  0  0  0  0  0
    0.9314    1.4938    1.3469 H   0  0  0  0  0  0  0  0  0  0  0  0
    1.8082    1.8970   -0.1443 H   0  0  0  0  0  0  0  0  0  0  0  0
    2.7692    0.4725    2.3299 H   0  0  0  0  0  0  0  0  0  0  0  0
    3.5257    1.7431    1.3829 H   0  0  0  0  0  0  0  0  0  0  0  0
    3.8496    0.0447   -0.4966 H   0  0  0  0  0  0  0  0  0  0  0  0
    5.7303    1.3551    0.2512 H   0  0  0  0  0  0  0  0  0  0  0  0
    5.8011    1.2773    2.0238 H   0  0  0  0  0  0  0  0  0  0  0  0
    7.9987    0.5287    1.8465 H   0  0  0  0  0  0  0  0  0  0  0  0
    7.8417    0.6073    0.0847 H   0  0  0  0  0  0  0  0  0  0  0  0
    7.3229   -1.7124    1.9648 H   0  0  0  0  0  0  0  0  0  0  0  0
    8.3220   -1.5958   -0.7967 H   0  0  0  0  0  0  0  0  0  0  0  0
    9.2442   -1.6639    0.5440 H   0  0  0  0  0  0  0  0  0  0  0  0
    5.8425   -1.3532   -0.6955 H   0  0  0  0  0  0  0  0  0  0  0  0
    5.5140   -2.5413    0.5955 H   0  0  0  0  0  0  0  0  0  0  0  0
    3.1647   -2.2011    1.4359 H   0  0  0  0  0  0  0  0  0  0  0  0
    3.1828   -2.1794   -0.3184 H   0  0  0  0  0  0  0  0  0  0  0  0
    1.0306   -1.3224    1.6045 H   0  0  0  0  0  0  0  0  0  0  0  0
    0.9295   -2.2169    0.0991 H   0  0  0  0  0  0  0  0  0  0  0  0
   -0.4140   -1.8773   -1.4885 H   0  0  0  0  0  0  0  0  0  0  0  0
   -3.3017    0.5597   -4.3128 H   0  0  0  0  0  0  0  0  0  0  0  0
   -5.5278    0.8647   -5.3330 H   0  0  0  0  0  0  0  0  0  0  0  0
   -7.5404    1.0536   -3.8911 H   0  0  0  0  0  0  0  0  0  0  0  0
   -7.3273    0.8993   -1.4419 H   0  0  0  0  0  0  0  0  0  0  0  0
   -5.6873    2.5731    0.4229 H   0  0  0  0  0  0  0  0  0  0  0  0
   -5.5303    2.3583    2.8743 H   0  0  0  0  0  0  0  0  0  0  0  0
   -4.8426    0.2189    3.9024 H   0  0  0  0  0  0  0  0  0  0  0  0
   -4.4764   -1.5364   -0.0194 H   0  0  0  0  0  0  0  0  0  0  0  0
  1  2  1  0
  2  3  1  0
  3  4  2  0
  4  5  1  0
  5  6  1  0
  6  7  1  0
  7  8  1  0
  8  9  1  0
  9 10  1  0
 10 11  1  0
 11 12  1  0
 12 13  1  0
 12 14  1  0
  8 15  1  0
 15 16  1  0
  4 17  1  0
 17 18  2  0
 18 19  1  0
 19 20  1  0
 20 21  2  0
 21 22  1  0
 22 23  2  0
 23 24  1  0
 24 25  2  0
 25 26  1  0
 26 27  1  0
 27 28  2  0
 28 29  1  0
 29 30  2  0
 30 31  1  0
 31 32  1  0
 31 33  1  0
 31 34  1  0
 30 35  1  0
 19  2  2  0
 25 20  1  0
 35 26  2  0
 16  5  1  0
 14  9  1  0
  1 36  1  0
  1 37  1  0
  6 38  1  0
  6 39  1  0
  7 40  1  0
  7 41  1  0
  8 42  1  0
 10 43  1  0
 10 44  1  0
 11 45  1  0
 11 46  1  0
 12 47  1  0
 13 48  1  0
 13 49  1  0
 14 50  1  0
 14 51  1  0
 15 52  1  0
 15 53  1  0
 16 54  1  0
 16 55  1  0
 17 56  1  0
 21 57  1  0
 22 58  1  0
 23 59  1  0
 24 60  1  0
 27 61  1  0
 28 62  1  0
 29 63  1  0
 35 64  1  0
M  END
$$$$
