
     RDKit          3D

 61 65  0  0  0  0  0  0  0  0999 V2000
    3.1509    2.0311    0.9769 N   0  0  0  0  0  0  0  0  0  0  0  0
    2.4094    1.3437    0.0153 C   0  0  0  0  0  0  0  0  0  0  0  0
    1.1268    1.0989    0.3626 N   0  0  0  0  0  0  0  0  0  0  0  0
    0.3328    0.4275   -0.5056 C   0  0  0  0  0  0  0  0  0  0  0  0
   -1.0039    0.2046   -0.1563 N   0  0  0  0  0  0  0  0  0  0  0  0
   -1.3468    0.6271    1.2126 C   0  0  0  0  0  0  0  0  0  0  0  0
   -2.7453    0.1573    1.6237 C   0  0  0  0  0  0  0  0  0  0  0  0
   -3.7098    0.2073    0.4330 C   0  0  0  0  0  0  0  0  0  0  0  0
   -5.0985   -0.0286    0.8481 N   0  0  0  0  0  0  0  0  0  0  0  0
   -5.3930   -1.2851    1.5351 C   0  0  0  0  0  0  0  0  0  0  0  0
   -6.9116   -1.3270    1.5114 C   0  0  0  0  0  0  0  0  0  0  0  0
   -7.2207   -0.8538    0.0985 C   0  0  0  0  0  0  0  0  0  0  0  0
   -8.5910   -0.3755   -0.0462 N   0  0  0  0  0  0  0  0  0  0  0  0
   -6.1169    0.1835   -0.1874 C   0  0  0  0  0  0  0  0  0  0  0  0
   -3.2070   -0.7001   -0.7112 C   0  0  0  0  0  0  0  0  0  0  0  0
   -1.7014   -0.9811   -0.6433 C   0  0  0  0  0  0  0  0  0  0  0  0
    0.8768    0.0511   -1.7378 C   0  0  0  0  0  0  0  0  0  0  0  0
    2.1645    0.2616   -2.1164 N   0  0  0  0  0  0  0  0  0  0  0  0
    2.9412    0.9021   -1.2082 C   0  0  0  0  0  0  0  0  0  0  0  0
    4.3325    1.1370   -1.6386 C   0  0  0  0  0  0  0  0  0  0  0  0
    4.5514    1.9538   -2.7698 C   0  0  0  0  0  0  0  0  0  0  0  0
    5.8387    2.2436   -3.2236 C   0  0  0  0  0  0  0  0  0  0  0  0
    6.9384    1.7174   -2.5583 C   0  0  0  0  0  0  0  0  0  0  0  0
    6.7490    0.8946   -1.4474 C   0  0  0  0  0  0  0  0  0  0  0  0
    5.4568    0.5828   -0.9721 C   0  0  0  0  0  0  0  0  0  0  0  0
    5.3327   -0.3300    0.1815 C   0  0  0  0  0  0  0  0  0  0  0  0
    4.7083   -1.5841    0.0428 C   0  0  0  0  0  0  0  0  0  0  0  0
    4.5793   -2.4494    1.1331 C   0  0  0  0  0  0  0  0  0  0  0  0
    5.0762   -2.0773    2.3822 C   0  0  0  0  0  0  0  0  0  0  0  0
    5.7042   -0.8411    2.5364 C   0  0  0  0  0  0  0  0  0  0  0  0
    6.3189   -0.3972    4.0849 Cl  0  0  0  0  0  0  0  0  0  0  0  0
    5.8354    0.0204    1.4458 C   0  0  0  0  0  0  0  0  0  0  0  0
    6.4483    1.2072    1.6085 F   0  0  0  0  0  0  0  0  0  0  0  0
    2.5119    2.3103    1.7153 H   0  0  0  0  0  0  0  0  0  0  0  0
    3.6632    2.8132    0.5829 H   0  0  0  0  0  0  0  0  0  0  0  0
   -0.6330    0.2299    1.9467 H   0  0  0  0  0  0  0  0  0  0  0  0
   -1.3135    1.7224    1.2664 H   0  0  0  0  0  0  0  0  0  0  0  0
   -3.1031    0.7833    2.4503 H   0  0  0  0  0  0  0  0  0  0  0  0
   -2.6777   -0.8679    2.0132 H   0  0  0  0  0  0  0  0  0  0  0  0
   -3.6756    1.2423    0.0603 H   0  0  0  0  0  0  0  0  0  0  0  0
   -4.9875   -2.1564    1.0082 H   0  0  0  0  0  0  0  0  0  0  0  0
   -5.0217   -1.2917    2.5640 H   0  0  0  0  0  0  0  0  0  0  0  0
   -7.3036   -2.3288    1.7117 H   0  0  0  0  0  0  0  0  0  0  0  0
   -7.3216   -0.6404    2.2641 H   0  0  0  0  0  0  0  0  0  0  0  0
   -7.0824   -1.7019   -0.5858 H   0  0  0  0  0  0  0  0  0  0  0  0
   -8.7166    0.0301   -0.9725 H   0  0  0  0  0  0  0  0  0  0  0  0
   -8.7530    0.3857    0.6143 H   0  0  0  0  0  0  0  0  0  0  0  0
   -5.7509    0.0472   -1.2114 H   0  0  0  0  0  0  0  0  0  0  0  0
   -6.4945    1.2097   -0.1044 H   0  0  0  0  0  0  0  0  0  0  0  0
   -3.4363   -0.2083   -1.6674 H   0  0  0  0  0  0  0  0  0  0  0  0
   -3.7325   -1.6622   -0.7384 H   0  0  0  0  0  0  0  0  0  0  0  0
   -1.3859   -1.3019   -1.6400 H   0  0  0  0  0  0  0  0  0  0  0  0
   -1.5054   -1.8254    0.0310 H   0  0  0  0  0  0  0  0  0  0  0  0
    0.2771   -0.4232   -2.5047 H   0  0  0  0  0  0  0  0  0  0  0  0
    3.6986    2.3701   -3.3064 H   0  0  0  0  0  0  0  0  0  0  0  0
    5.9782    2.8770   -4.0964 H   0  0  0  0  0  0  0  0  0  0  0  0
    7.9449    1.9372   -2.9062 H   0  0  0  0  0  0  0  0  0  0  0  0
    7.6256    0.4820   -0.9484 H   0  0  0  0  0  0  0  0  0  0  0  0
    4.3121   -1.8914   -0.9250 H   0  0  0  0  0  0  0  0  0  0  0  0
    4.0864   -3.4118    1.0047 H   0  0  0  0  0  0  0  0  0  0  0  0
    4.9701   -2.7511    3.2290 H   0  0  0  0  0  0  0  0  0  0  0  0
  1  2  1  0
  2  3  1  0
  3  4  2  0
  4  5  1  0
  5  6  1  0
  6  7  1  0
  7  8  1  0
  8  9  1  0
  9 10  1  0
 10 11  1  0
 11 12  1  0
 12 13  1  0
 12 14  1  0
  8 15  1  0
 15 16  1  0
  4 17  1  0
 17 18  2  0
 18 19  1  0
 19 20  1  0
 20 21  2  0
 21 22  1  0
 22 23  2  0
 23 24  1  0
 24 25  2  0
 25 26  1  0
 26 27  2  0
 27 28  1  0
 28 29  2  0
 29 30  1  0
 30 31  1  0
 30 32  2  0
 32 33  1  0
 19  2  2  0
 25 20  1  0
 32 26  1  0
 16  5  1  0
 14  9  1  0
  1 34  1  0
  1 35  1  0
  6 36  1  0
  6 37  1  0
  7 38  1  0
  7 39  1  0
  8 40  1  0
 10 41  1  0
 10 42  1  0
 11 43  1  0
 11 44  1  0
 12 45  1  0
 13 46  1  0
 13 47  1  0
 14 48  1  0
 14 49  1  0
 15 50  1  0
 15 51  1  0
 16 52  1  0
 16 53  1  0
 17 54  1  0
 21 55  1  0
 22 56  1  0
 23 57  1  0
 24 58  1  0
 27 59  1  0
 28 60  1  0
 29 61  1  0
M  END
$$$$
