
     RDKit          3D

 54 57  0  0  0  0  0  0  0  0999 V2000
    3.8106    0.0091    2.1022 N   0  0  0  0  0  0  0  0  0  0  0  0
    3.3583    0.2520    0.8017 C   0  0  0  0  0  0  0  0  0  0  0  0
    2.0611    0.6161    0.7074 N   0  0  0  0  0  0  0  0  0  0  0  0
    1.5522    0.8560   -0.5233 C   0  0  0  0  0  0  0  0  0  0  0  0
    0.2118    1.2486   -0.6622 N   0  0  0  0  0  0  0  0  0  0  0  0
   -0.5339    0.5455   -1.7127 C   0  0  0  0  0  0  0  0  0  0  0  0
   -2.0413    0.6130   -1.4651 C   0  0  0  0  0  0  0  0  0  0  0  0
   -2.4213   -0.0382   -0.1108 C   0  0  0  0  0  0  0  0  0  0  0  0
   -3.9102    0.2304    0.3219 C   0  0  0  0  0  0  0  0  0  0  0  0
   -4.0298    1.6447    0.7278 N   0  0  0  0  0  0  0  0  0  0  0  0
   -4.3089   -0.6469    1.5453 C   0  0  0  0  0  0  0  0  0  0  0  0
   -5.0006   -1.9388    1.1126 C   0  0  0  0  0  0  0  0  0  0  0  0
   -6.2660   -1.6854    0.4220 N   0  0  0  0  0  0  0  0  0  0  0  0
   -6.2730   -0.4594   -0.3744 C   0  0  0  0  0  0  0  0  0  0  0  0
   -4.8812   -0.0596   -0.8557 C   0  0  0  0  0  0  0  0  0  0  0  0
   -1.3768    0.3321    0.9810 C   0  0  0  0  0  0  0  0  0  0  0  0
   -0.5169    1.5290    0.5827 C   0  0  0  0  0  0  0  0  0  0  0  0
    2.3908    0.7161   -1.6372 C   0  0  0  0  0  0  0  0  0  0  0  0
    3.6925    0.3364   -1.5830 N   0  0  0  0  0  0  0  0  0  0  0  0
    4.1788    0.1320   -0.3345 C   0  0  0  0  0  0  0  0  0  0  0  0
    5.5908   -0.2616   -0.2776 C   0  0  0  0  0  0  0  0  0  0  0  0
    5.9589   -1.5468   -0.7311 C   0  0  0  0  0  0  0  0  0  0  0  0
    7.2861   -1.9811   -0.6908 C   0  0  0  0  0  0  0  0  0  0  0  0
    8.2734   -1.1328   -0.2018 C   0  0  0  0  0  0  0  0  0  0  0  0
    7.9295    0.1438    0.2333 C   0  0  0  0  0  0  0  0  0  0  0  0
    8.9081    0.9425    0.6869 F   0  0  0  0  0  0  0  0  0  0  0  0
    6.6045    0.5903    0.1975 C   0  0  0  0  0  0  0  0  0  0  0  0
    6.2727    2.2089    0.7157 Cl  0  0  0  0  0  0  0  0  0  0  0  0
    3.0113    0.1281    2.7199 H   0  0  0  0  0  0  0  0  0  0  0  0
    4.2333   -0.9069    2.1930 H   0  0  0  0  0  0  0  0  0  0  0  0
   -0.2376   -0.5110   -1.7642 H   0  0  0  0  0  0  0  0  0  0  0  0
   -0.3176    1.0029   -2.6853 H   0  0  0  0  0  0  0  0  0  0  0  0
   -2.3655    1.6594   -1.5036 H   0  0  0  0  0  0  0  0  0  0  0  0
   -2.5514    0.0968   -2.2862 H   0  0  0  0  0  0  0  0  0  0  0  0
   -2.3346   -1.1258   -0.2544 H   0  0  0  0  0  0  0  0  0  0  0  0
   -3.9089    2.2606   -0.0749 H   0  0  0  0  0  0  0  0  0  0  0  0
   -4.9708    1.8274    1.0783 H   0  0  0  0  0  0  0  0  0  0  0  0
   -3.4430   -0.9007    2.1653 H   0  0  0  0  0  0  0  0  0  0  0  0
   -4.9957   -0.1031    2.2098 H   0  0  0  0  0  0  0  0  0  0  0  0
   -5.2045   -2.5595    1.9916 H   0  0  0  0  0  0  0  0  0  0  0  0
   -4.3332   -2.5187    0.4636 H   0  0  0  0  0  0  0  0  0  0  0  0
   -6.5008   -2.4903   -0.1584 H   0  0  0  0  0  0  0  0  0  0  0  0
   -6.9360   -0.5993   -1.2357 H   0  0  0  0  0  0  0  0  0  0  0  0
   -6.7108    0.3496    0.2219 H   0  0  0  0  0  0  0  0  0  0  0  0
   -4.9611    0.8091   -1.5219 H   0  0  0  0  0  0  0  0  0  0  0  0
   -4.4901   -0.8776   -1.4763 H   0  0  0  0  0  0  0  0  0  0  0  0
   -1.8464    0.5454    1.9462 H   0  0  0  0  0  0  0  0  0  0  0  0
   -0.7259   -0.5368    1.1463 H   0  0  0  0  0  0  0  0  0  0  0  0
    0.1412    1.8198    1.4101 H   0  0  0  0  0  0  0  0  0  0  0  0
   -1.1568    2.4048    0.4165 H   0  0  0  0  0  0  0  0  0  0  0  0
    2.0311    0.9301   -2.6376 H   0  0  0  0  0  0  0  0  0  0  0  0
    5.1958   -2.2153   -1.1295 H   0  0  0  0  0  0  0  0  0  0  0  0
    7.5459   -2.9752   -1.0471 H   0  0  0  0  0  0  0  0  0  0  0  0
    9.3113   -1.4493   -0.1653 H   0  0  0  0  0  0  0  0  0  0  0  0
  1  2  1  0
  2  3  1  0
  3  4  2  0
  4  5  1  0
  5  6  1  0
  6  7  1  0
  7  8  1  0
  8  9  1  0
  9 10  1  0
  9 11  1  0
 11 12  1  0
 12 13  1  0
 13 14  1  0
 14 15  1  0
  8 16  1  0
 16 17  1  0
  4 18  1  0
 18 19  2  0
 19 20  1  0
 20 21  1  0
 21 22  2  0
 22 23  1  0
 23 24  2  0
 24 25  1  0
 25 26  1  0
 25 27  2  0
 27 28  1  0
 20  2  2  0
 27 21  1  0
 17  5  1  0
 15  9  1  0
  1 29  1  0
  1 30  1  0
  6 31  1  0
  6 32  1  0
  7 33  1  0
  7 34  1  0
  8 35  1  0
 10 36  1  0
 10 37  1  0
 11 38  1  0
 11 39  1  0
 12 40  1  0
 12 41  1  0
 13 42  1  0
 14 43  1  0
 14 44  1  0
 15 45  1  0
 15 46  1  0
 16 47  1  0
 16 48  1  0
 17 49  1  0
 17 50  1  0
 18 51  1  0
 22 52  1  0
 23 53  1  0
 24 54  1  0
M  END
$$$$
