
     RDKit          3D

 61 65  0  0  0  0  0  0  0  0999 V2000
   -1.7194    2.0439    0.3583 N   0  0  0  0  0  0  0  0  0  0  0  0
   -1.3160    0.8658   -0.2809 C   0  0  0  0  0  0  0  0  0  0  0  0
   -0.2243    0.2738    0.2518 N   0  0  0  0  0  0  0  0  0  0  0  0
    0.2252   -0.8659   -0.3231 C   0  0  0  0  0  0  0  0  0  0  0  0
    1.3584   -1.5214    0.1984 N   0  0  0  0  0  0  0  0  0  0  0  0
    1.8650   -0.9902    1.4740 C   0  0  0  0  0  0  0  0  0  0  0  0
    3.0981   -0.1241    1.2374 C   0  0  0  0  0  0  0  0  0  0  0  0
    4.2654   -0.9622    0.6616 C   0  0  0  0  0  0  0  0  0  0  0  0
    5.1478   -0.1170   -0.1781 N   0  0  0  0  0  0  0  0  0  0  0  0
    5.8382    0.9510    0.6041 C   0  0  0  0  0  0  0  0  0  0  0  0
    7.0411    0.0130    0.8133 C   0  0  0  0  0  0  0  0  0  0  0  0
    8.2911    0.6882    0.4561 N   0  0  0  0  0  0  0  0  0  0  0  0
    6.4791   -0.7610   -0.3952 C   0  0  0  0  0  0  0  0  0  0  0  0
    3.7152   -2.1502   -0.1630 C   0  0  0  0  0  0  0  0  0  0  0  0
    2.3808   -1.8165   -0.8233 C   0  0  0  0  0  0  0  0  0  0  0  0
   -0.4635   -1.3838   -1.4287 C   0  0  0  0  0  0  0  0  0  0  0  0
   -1.5571   -0.8148   -1.9945 N   0  0  0  0  0  0  0  0  0  0  0  0
   -1.9918    0.3178   -1.3877 C   0  0  0  0  0  0  0  0  0  0  0  0
   -3.1826    0.9328   -1.9933 C   0  0  0  0  0  0  0  0  0  0  0  0
   -3.0436    1.6150   -3.2193 C   0  0  0  0  0  0  0  0  0  0  0  0
   -4.1308    2.2466   -3.8237 C   0  0  0  0  0  0  0  0  0  0  0  0
   -5.3801    2.2036   -3.2161 C   0  0  0  0  0  0  0  0  0  0  0  0
   -5.5441    1.5189   -2.0112 C   0  0  0  0  0  0  0  0  0  0  0  0
   -4.4613    0.8690   -1.3859 C   0  0  0  0  0  0  0  0  0  0  0  0
   -4.7043    0.1256   -0.1375 C   0  0  0  0  0  0  0  0  0  0  0  0
   -4.6795   -1.2772   -0.1227 C   0  0  0  0  0  0  0  0  0  0  0  0
   -4.9036   -1.9859    1.0586 C   0  0  0  0  0  0  0  0  0  0  0  0
   -5.1558   -1.2996    2.2452 C   0  0  0  0  0  0  0  0  0  0  0  0
   -5.1871    0.1031    2.2626 C   0  0  0  0  0  0  0  0  0  0  0  0
   -5.4422    0.8344    3.5556 C   0  0  0  0  0  0  0  0  0  0  0  0
   -4.4789    0.6004    4.4908 F   0  0  0  0  0  0  0  0  0  0  0  0
   -5.5076    2.1891    3.4192 F   0  0  0  0  0  0  0  0  0  0  0  0
   -6.6195    0.4659    4.1372 F   0  0  0  0  0  0  0  0  0  0  0  0
   -4.9641    0.8032    1.0648 C   0  0  0  0  0  0  0  0  0  0  0  0
   -1.0213    2.2483    1.0682 H   0  0  0  0  0  0  0  0  0  0  0  0
   -1.8381    2.8019   -0.3047 H   0  0  0  0  0  0  0  0  0  0  0  0
    1.1120   -0.4378    2.0480 H   0  0  0  0  0  0  0  0  0  0  0  0
    2.1353   -1.8407    2.1137 H   0  0  0  0  0  0  0  0  0  0  0  0
    2.8361    0.6995    0.5592 H   0  0  0  0  0  0  0  0  0  0  0  0
    3.4068    0.3335    2.1850 H   0  0  0  0  0  0  0  0  0  0  0  0
    4.8261   -1.3854    1.5066 H   0  0  0  0  0  0  0  0  0  0  0  0
    5.3557    1.2900    1.5255 H   0  0  0  0  0  0  0  0  0  0  0  0
    6.0361    1.8432   -0.0058 H   0  0  0  0  0  0  0  0  0  0  0  0
    7.0524   -0.5329    1.7616 H   0  0  0  0  0  0  0  0  0  0  0  0
    9.0895    0.0600    0.3820 H   0  0  0  0  0  0  0  0  0  0  0  0
    8.5657    1.4175    1.1126 H   0  0  0  0  0  0  0  0  0  0  0  0
    6.5252   -1.8512   -0.2979 H   0  0  0  0  0  0  0  0  0  0  0  0
    6.9107   -0.4974   -1.3703 H   0  0  0  0  0  0  0  0  0  0  0  0
    3.5804   -3.0110    0.5065 H   0  0  0  0  0  0  0  0  0  0  0  0
    4.4269   -2.4811   -0.9281 H   0  0  0  0  0  0  0  0  0  0  0  0
    2.5154   -0.9672   -1.5064 H   0  0  0  0  0  0  0  0  0  0  0  0
    2.0661   -2.6813   -1.4188 H   0  0  0  0  0  0  0  0  0  0  0  0
   -0.1532   -2.3125   -1.8946 H   0  0  0  0  0  0  0  0  0  0  0  0
   -2.0719    1.6484   -3.7099 H   0  0  0  0  0  0  0  0  0  0  0  0
   -4.0011    2.7651   -4.7702 H   0  0  0  0  0  0  0  0  0  0  0  0
   -6.2322    2.6900   -3.6843 H   0  0  0  0  0  0  0  0  0  0  0  0
   -6.5346    1.4763   -1.5606 H   0  0  0  0  0  0  0  0  0  0  0  0
   -4.4730   -1.8257   -1.0410 H   0  0  0  0  0  0  0  0  0  0  0  0
   -4.8724   -3.0728    1.0513 H   0  0  0  0  0  0  0  0  0  0  0  0
   -5.3216   -1.8613    3.1634 H   0  0  0  0  0  0  0  0  0  0  0  0
   -4.9689    1.8934    1.0696 H   0  0  0  0  0  0  0  0  0  0  0  0
  1  2  1  0
  2  3  1  0
  3  4  2  0
  4  5  1  0
  5  6  1  0
  6  7  1  0
  7  8  1  0
  8  9  1  0
  9 10  1  0
 10 11  1  0
 11 12  1  0
 11 13  1  0
  8 14  1  0
 14 15  1  0
  4 16  1  0
 16 17  2  0
 17 18  1  0
 18 19  1  0
 19 20  2  0
 20 21  1  0
 21 22  2  0
 22 23  1  0
 23 24  2  0
 24 25  1  0
 25 26  1  0
 26 27  2  0
 27 28  1  0
 28 29  2  0
 29 30  1  0
 30 31  1  0
 30 32  1  0
 30 33  1  0
 29 34  1  0
 18  2  2  0
 24 19  1  0
 34 25  2  0
 15  5  1  0
 13  9  1  0
  1 35  1  0
  1 36  1  0
  6 37  1  0
  6 38  1  0
  7 39  1  0
  7 40  1  0
  8 41  1  0
 10 42  1  0
 10 43  1  0
 11 44  1  0
 12 45  1  0
 12 46  1  0
 13 47  1  0
 13 48  1  0
 14 49  1  0
 14 50  1  0
 15 51  1  0
 15 52  1  0
 16 53  1  0
 20 54  1  0
 21 55  1  0
 22 56  1  0
 23 57  1  0
 26 58  1  0
 27 59  1  0
 28 60  1  0
 34 61  1  0
M  END
$$$$
