
     RDKit          3D

 58 62  0  0  0  0  0  0  0  0999 V2000
    2.8292    1.7561   -0.9731 N   0  0  0  0  0  0  0  0  0  0  0  0
    2.0139    1.1682   -0.0043 C   0  0  0  0  0  0  0  0  0  0  0  0
    0.7203    1.0169   -0.3664 N   0  0  0  0  0  0  0  0  0  0  0  0
   -0.1251    0.4261    0.5105 C   0  0  0  0  0  0  0  0  0  0  0  0
   -1.4662    0.2700    0.1591 N   0  0  0  0  0  0  0  0  0  0  0  0
   -1.8661    0.8783   -1.1118 C   0  0  0  0  0  0  0  0  0  0  0  0
   -3.3862    0.8216   -1.2406 C   0  0  0  0  0  0  0  0  0  0  0  0
   -3.8781   -0.6395   -1.2914 C   0  0  0  0  0  0  0  0  0  0  0  0
   -5.2689   -0.9320   -0.9108 N   0  0  0  0  0  0  0  0  0  0  0  0
   -6.2709   -0.0501   -1.5404 C   0  0  0  0  0  0  0  0  0  0  0  0
   -6.9927    0.0637   -0.1754 C   0  0  0  0  0  0  0  0  0  0  0  0
   -8.0535   -0.9512   -0.0731 N   0  0  0  0  0  0  0  0  0  0  0  0
   -5.6751   -0.4764    0.4321 C   0  0  0  0  0  0  0  0  0  0  0  0
   -2.9144   -1.5994   -0.5650 C   0  0  0  0  0  0  0  0  0  0  0  0
   -2.1742   -0.9397    0.5940 C   0  0  0  0  0  0  0  0  0  0  0  0
    0.3683    0.0334    1.7598 C   0  0  0  0  0  0  0  0  0  0  0  0
    1.6592    0.1617    2.1561 N   0  0  0  0  0  0  0  0  0  0  0  0
    2.4916    0.7219    1.2422 C   0  0  0  0  0  0  0  0  0  0  0  0
    3.8921    0.8569    1.6806 C   0  0  0  0  0  0  0  0  0  0  0  0
    4.1749    1.7320    2.7511 C   0  0  0  0  0  0  0  0  0  0  0  0
    5.4792    1.9347    3.2009 C   0  0  0  0  0  0  0  0  0  0  0  0
    6.5299    1.2612    2.5924 C   0  0  0  0  0  0  0  0  0  0  0  0
    6.2738    0.3767    1.5440 C   0  0  0  0  0  0  0  0  0  0  0  0
    4.9630    0.1501    1.0747 C   0  0  0  0  0  0  0  0  0  0  0  0
    4.7571   -0.8326   -0.0075 C   0  0  0  0  0  0  0  0  0  0  0  0
    4.0006   -1.9979    0.2154 C   0  0  0  0  0  0  0  0  0  0  0  0
    3.7908   -2.9282   -0.8064 C   0  0  0  0  0  0  0  0  0  0  0  0
    4.3395   -2.7126   -2.0695 C   0  0  0  0  0  0  0  0  0  0  0  0
    5.0997   -1.5681   -2.3061 C   0  0  0  0  0  0  0  0  0  0  0  0
    5.7802   -1.3191   -3.8696 Cl  0  0  0  0  0  0  0  0  0  0  0  0
    5.3086   -0.6404   -1.2844 C   0  0  0  0  0  0  0  0  0  0  0  0
    6.0495    0.4554   -1.5266 F   0  0  0  0  0  0  0  0  0  0  0  0
    2.2355    2.0575   -1.7398 H   0  0  0  0  0  0  0  0  0  0  0  0
    3.4028    2.5023   -0.5962 H   0  0  0  0  0  0  0  0  0  0  0  0
   -1.3931    0.3659   -1.9596 H   0  0  0  0  0  0  0  0  0  0  0  0
   -1.5646    1.9332   -1.1425 H   0  0  0  0  0  0  0  0  0  0  0  0
   -3.8249    1.3745   -0.4038 H   0  0  0  0  0  0  0  0  0  0  0  0
   -3.6910    1.3468   -2.1538 H   0  0  0  0  0  0  0  0  0  0  0  0
   -3.8206   -0.9357   -2.3493 H   0  0  0  0  0  0  0  0  0  0  0  0
   -6.8357   -0.5168   -2.3548 H   0  0  0  0  0  0  0  0  0  0  0  0
   -5.9106    0.9190   -1.9029 H   0  0  0  0  0  0  0  0  0  0  0  0
   -7.2938    1.0684    0.1314 H   0  0  0  0  0  0  0  0  0  0  0  0
   -8.4158   -1.0791    0.8691 H   0  0  0  0  0  0  0  0  0  0  0  0
   -8.8548   -0.7753   -0.6752 H   0  0  0  0  0  0  0  0  0  0  0  0
   -5.0691    0.3110    0.8912 H   0  0  0  0  0  0  0  0  0  0  0  0
   -5.7738   -1.2810    1.1695 H   0  0  0  0  0  0  0  0  0  0  0  0
   -3.4358   -2.4976   -0.2103 H   0  0  0  0  0  0  0  0  0  0  0  0
   -2.1729   -1.9618   -1.2911 H   0  0  0  0  0  0  0  0  0  0  0  0
   -1.4914   -1.6896    1.0113 H   0  0  0  0  0  0  0  0  0  0  0  0
   -2.8759   -0.6686    1.3904 H   0  0  0  0  0  0  0  0  0  0  0  0
   -0.2867   -0.3931    2.5117 H   0  0  0  0  0  0  0  0  0  0  0  0
    3.3595    2.2628    3.2412 H   0  0  0  0  0  0  0  0  0  0  0  0
    5.6706    2.6158    4.0259 H   0  0  0  0  0  0  0  0  0  0  0  0
    7.5495    1.4143    2.9365 H   0  0  0  0  0  0  0  0  0  0  0  0
    7.1119   -0.1510    1.0910 H   0  0  0  0  0  0  0  0  0  0  0  0
    3.5629   -2.1828    1.1962 H   0  0  0  0  0  0  0  0  0  0  0  0
    3.1961   -3.8183   -0.6145 H   0  0  0  0  0  0  0  0  0  0  0  0
    4.1719   -3.4370   -2.8621 H   0  0  0  0  0  0  0  0  0  0  0  0
  1  2  1  0
  2  3  1  0
  3  4  2  0
  4  5  1  0
  5  6  1  0
  6  7  1  0
  7  8  1  0
  8  9  1  0
  9 10  1  0
 10 11  1  0
 11 12  1  0
 11 13  1  0
  8 14  1  0
 14 15  1  0
  4 16  1  0
 16 17  2  0
 17 18  1  0
 18 19  1  0
 19 20  2  0
 20 21  1  0
 21 22  2  0
 22 23  1  0
 23 24  2  0
 24 25  1  0
 25 26  2  0
 26 27  1  0
 27 28  2  0
 28 29  1  0
 29 30  1  0
 29 31  2  0
 31 32  1  0
 18  2  2  0
 24 19  1  0
 31 25  1  0
 15  5  1  0
 13  9  1  0
  1 33  1  0
  1 34  1  0
  6 35  1  0
  6 36  1  0
  7 37  1  0
  7 38  1  0
  8 39  1  0
 10 40  1  0
 10 41  1  0
 11 42  1  0
 12 43  1  0
 12 44  1  0
 13 45  1  0
 13 46  1  0
 14 47  1  0
 14 48  1  0
 15 49  1  0
 15 50  1  0
 16 51  1  0
 20 52  1  0
 21 53  1  0
 22 54  1  0
 23 55  1  0
 26 56  1  0
 27 57  1  0
 28 58  1  0
M  END
$$$$
