
     RDKit          3D

 58 62  0  0  0  0  0  0  0  0999 V2000
    2.9004    2.3492    0.3117 N   0  0  0  0  0  0  0  0  0  0  0  0
    2.1001    1.3171    0.8167 C   0  0  0  0  0  0  0  0  0  0  0  0
    0.7915    1.3971    0.4903 N   0  0  0  0  0  0  0  0  0  0  0  0
   -0.0275    0.4129    0.9306 C   0  0  0  0  0  0  0  0  0  0  0  0
   -1.4067    0.4377    0.6122 N   0  0  0  0  0  0  0  0  0  0  0  0
   -1.8235    1.7185    0.0205 C   0  0  0  0  0  0  0  0  0  0  0  0
   -3.3426    1.7470   -0.1407 C   0  0  0  0  0  0  0  0  0  0  0  0
   -3.8305    0.5504   -0.9765 C   0  0  0  0  0  0  0  0  0  0  0  0
   -5.2682    0.7254   -1.2350 N   0  0  0  0  0  0  0  0  0  0  0  0
   -5.8667   -0.3251   -2.0880 C   0  0  0  0  0  0  0  0  0  0  0  0
   -7.1378   -0.2207   -1.2049 C   0  0  0  0  0  0  0  0  0  0  0  0
   -7.6183   -1.5542   -0.8248 N   0  0  0  0  0  0  0  0  0  0  0  0
   -6.1731    0.3387   -0.1268 C   0  0  0  0  0  0  0  0  0  0  0  0
   -3.3304   -0.7571   -0.3313 C   0  0  0  0  0  0  0  0  0  0  0  0
   -1.8074   -0.7355   -0.1796 C   0  0  0  0  0  0  0  0  0  0  0  0
    0.4988   -0.6121    1.7272 C   0  0  0  0  0  0  0  0  0  0  0  0
    1.8056   -0.7244    2.0651 N   0  0  0  0  0  0  0  0  0  0  0  0
    2.6121    0.2482    1.5764 C   0  0  0  0  0  0  0  0  0  0  0  0
    4.0355    0.1069    1.9108 C   0  0  0  0  0  0  0  0  0  0  0  0
    4.4947    0.5754    3.1573 C   0  0  0  0  0  0  0  0  0  0  0  0
    5.8402    0.4785    3.5127 C   0  0  0  0  0  0  0  0  0  0  0  0
    6.7501   -0.0938    2.6308 C   0  0  0  0  0  0  0  0  0  0  0  0
    6.3142   -0.5777    1.3970 C   0  0  0  0  0  0  0  0  0  0  0  0
    4.9599   -0.4939    1.0206 C   0  0  0  0  0  0  0  0  0  0  0  0
    4.5463   -1.0398   -0.2874 C   0  0  0  0  0  0  0  0  0  0  0  0
    4.5826   -0.1934   -1.4125 C   0  0  0  0  0  0  0  0  0  0  0  0
    4.1859   -0.6444   -2.6706 C   0  0  0  0  0  0  0  0  0  0  0  0
    3.7474   -1.9554   -2.8281 C   0  0  0  0  0  0  0  0  0  0  0  0
    3.7077   -2.8190   -1.7292 C   0  0  0  0  0  0  0  0  0  0  0  0
    3.1494   -4.4323   -2.0179 Cl  0  0  0  0  0  0  0  0  0  0  0  0
    4.1086   -2.3720   -0.4589 C   0  0  0  0  0  0  0  0  0  0  0  0
    4.0805   -3.4582    0.8989 Cl  0  0  0  0  0  0  0  0  0  0  0  0
    2.2744    3.0212   -0.1244 H   0  0  0  0  0  0  0  0  0  0  0  0
    3.4683    2.7650    1.0425 H   0  0  0  0  0  0  0  0  0  0  0  0
   -1.3501    1.8713   -0.9589 H   0  0  0  0  0  0  0  0  0  0  0  0
   -1.5384    2.5544    0.6722 H   0  0  0  0  0  0  0  0  0  0  0  0
   -3.6300    2.6916   -0.6195 H   0  0  0  0  0  0  0  0  0  0  0  0
   -3.8135    1.7314    0.8511 H   0  0  0  0  0  0  0  0  0  0  0  0
   -3.3413    0.6310   -1.9578 H   0  0  0  0  0  0  0  0  0  0  0  0
   -5.3699   -1.3010   -2.0834 H   0  0  0  0  0  0  0  0  0  0  0  0
   -6.0111   -0.0250   -3.1311 H   0  0  0  0  0  0  0  0  0  0  0  0
   -7.9023    0.4800   -1.5557 H   0  0  0  0  0  0  0  0  0  0  0  0
   -8.1072   -2.0377   -1.5770 H   0  0  0  0  0  0  0  0  0  0  0  0
   -6.8924   -2.1928   -0.5023 H   0  0  0  0  0  0  0  0  0  0  0  0
   -6.5689    1.1861    0.4425 H   0  0  0  0  0  0  0  0  0  0  0  0
   -5.7972   -0.4016    0.5860 H   0  0  0  0  0  0  0  0  0  0  0  0
   -3.6047   -1.6285   -0.9334 H   0  0  0  0  0  0  0  0  0  0  0  0
   -3.7676   -0.8949    0.6639 H   0  0  0  0  0  0  0  0  0  0  0  0
   -1.3308   -0.7120   -1.1688 H   0  0  0  0  0  0  0  0  0  0  0  0
   -1.5110   -1.6724    0.3065 H   0  0  0  0  0  0  0  0  0  0  0  0
   -0.1425   -1.3848    2.1372 H   0  0  0  0  0  0  0  0  0  0  0  0
    3.7901    1.0106    3.8641 H   0  0  0  0  0  0  0  0  0  0  0  0
    6.1739    0.8407    4.4817 H   0  0  0  0  0  0  0  0  0  0  0  0
    7.7981   -0.1775    2.9070 H   0  0  0  0  0  0  0  0  0  0  0  0
    7.0374   -1.0382    0.7262 H   0  0  0  0  0  0  0  0  0  0  0  0
    4.9088    0.8405   -1.3019 H   0  0  0  0  0  0  0  0  0  0  0  0
    4.2126    0.0305   -3.5227 H   0  0  0  0  0  0  0  0  0  0  0  0
    3.4362   -2.3008   -3.8111 H   0  0  0  0  0  0  0  0  0  0  0  0
  1  2  1  0
  2  3  1  0
  3  4  2  0
  4  5  1  0
  5  6  1  0
  6  7  1  0
  7  8  1  0
  8  9  1  0
  9 10  1  0
 10 11  1  0
 11 12  1  0
 11 13  1  0
  8 14  1  0
 14 15  1  0
  4 16  1  0
 16 17  2  0
 17 18  1  0
 18 19  1  0
 19 20  2  0
 20 21  1  0
 21 22  2  0
 22 23  1  0
 23 24  2  0
 24 25  1  0
 25 26  2  0
 26 27  1  0
 27 28  2  0
 28 29  1  0
 29 30  1  0
 29 31  2  0
 31 32  1  0
 18  2  2  0
 24 19  1  0
 31 25  1  0
 15  5  1  0
 13  9  1  0
  1 33  1  0
  1 34  1  0
  6 35  1  0
  6 36  1  0
  7 37  1  0
  7 38  1  0
  8 39  1  0
 10 40  1  0
 10 41  1  0
 11 42  1  0
 12 43  1  0
 12 44  1  0
 13 45  1  0
 13 46  1  0
 14 47  1  0
 14 48  1  0
 15 49  1  0
 15 50  1  0
 16 51  1  0
 20 52  1  0
 21 53  1  0
 22 54  1  0
 23 55  1  0
 26 56  1  0
 27 57  1  0
 28 58  1  0
M  END
$$$$
