
     RDKit          3D

 61 65  0  0  0  0  0  0  0  0999 V2000
    3.0605    1.8476    1.1615 N   0  0  0  0  0  0  0  0  0  0  0  0
    2.3596    1.1863    0.1526 C   0  0  0  0  0  0  0  0  0  0  0  0
    1.1069    0.8125    0.4933 N   0  0  0  0  0  0  0  0  0  0  0  0
    0.3496    0.1578   -0.4210 C   0  0  0  0  0  0  0  0  0  0  0  0
   -0.9643   -0.1879   -0.0831 N   0  0  0  0  0  0  0  0  0  0  0  0
   -1.3218    0.1099    1.3119 C   0  0  0  0  0  0  0  0  0  0  0  0
   -2.7359   -0.3817    1.6554 C   0  0  0  0  0  0  0  0  0  0  0  0
   -3.6429   -0.3376    0.4175 C   0  0  0  0  0  0  0  0  0  0  0  0
   -5.0552   -0.6594    0.7332 N   0  0  0  0  0  0  0  0  0  0  0  0
   -5.6645    0.2868    1.6870 C   0  0  0  0  0  0  0  0  0  0  0  0
   -7.1542    0.3575    1.3423 C   0  0  0  0  0  0  0  0  0  0  0  0
   -7.3304   -0.6246    0.1921 C   0  0  0  0  0  0  0  0  0  0  0  0
   -8.4121   -0.2458   -0.7166 N   0  0  0  0  0  0  0  0  0  0  0  0
   -5.9398   -0.6355   -0.4473 C   0  0  0  0  0  0  0  0  0  0  0  0
   -3.0710   -1.3070   -0.6408 C   0  0  0  0  0  0  0  0  0  0  0  0
   -1.5431   -1.4148   -0.6228 C   0  0  0  0  0  0  0  0  0  0  0  0
    0.8974   -0.0753   -1.6858 C   0  0  0  0  0  0  0  0  0  0  0  0
    2.1585    0.2635   -2.0570 N   0  0  0  0  0  0  0  0  0  0  0  0
    2.9034    0.8862   -1.1069 C   0  0  0  0  0  0  0  0  0  0  0  0
    4.2693    1.2495   -1.5377 C   0  0  0  0  0  0  0  0  0  0  0  0
    4.4062    2.1421   -2.6254 C   0  0  0  0  0  0  0  0  0  0  0  0
    5.6595    2.5223   -3.1088 C   0  0  0  0  0  0  0  0  0  0  0  0
    6.8089    2.0063   -2.5252 C   0  0  0  0  0  0  0  0  0  0  0  0
    6.7030    1.1108   -1.4598 C   0  0  0  0  0  0  0  0  0  0  0  0
    5.4467    0.7245   -0.9396 C   0  0  0  0  0  0  0  0  0  0  0  0
    5.4169   -0.2470    0.1793 C   0  0  0  0  0  0  0  0  0  0  0  0
    4.9376   -1.5525   -0.0695 C   0  0  0  0  0  0  0  0  0  0  0  0
    4.8866   -2.5130    0.9415 C   0  0  0  0  0  0  0  0  0  0  0  0
    5.3140   -2.1871    2.2262 C   0  0  0  0  0  0  0  0  0  0  0  0
    5.7958   -0.9023    2.5035 C   0  0  0  0  0  0  0  0  0  0  0  0
    6.3022   -0.5850    4.1302 Cl  0  0  0  0  0  0  0  0  0  0  0  0
    5.8576    0.0695    1.4882 C   0  0  0  0  0  0  0  0  0  0  0  0
    6.4734    1.6658    1.8466 Cl  0  0  0  0  0  0  0  0  0  0  0  0
    2.4147    2.0150    1.9283 H   0  0  0  0  0  0  0  0  0  0  0  0
    3.5141    2.6928    0.8360 H   0  0  0  0  0  0  0  0  0  0  0  0
   -0.6145   -0.3529    2.0128 H   0  0  0  0  0  0  0  0  0  0  0  0
   -1.2874    1.1967    1.4648 H   0  0  0  0  0  0  0  0  0  0  0  0
   -3.1232    0.2340    2.4753 H   0  0  0  0  0  0  0  0  0  0  0  0
   -2.6875   -1.4115    2.0407 H   0  0  0  0  0  0  0  0  0  0  0  0
   -3.6019    0.6826   -0.0007 H   0  0  0  0  0  0  0  0  0  0  0  0
   -5.5246   -0.0685    2.7140 H   0  0  0  0  0  0  0  0  0  0  0  0
   -5.2316    1.2930    1.6094 H   0  0  0  0  0  0  0  0  0  0  0  0
   -7.7891    0.0901    2.1949 H   0  0  0  0  0  0  0  0  0  0  0  0
   -7.4110    1.3807    1.0400 H   0  0  0  0  0  0  0  0  0  0  0  0
   -7.5556   -1.6212    0.5987 H   0  0  0  0  0  0  0  0  0  0  0  0
   -8.5291   -0.9720   -1.4257 H   0  0  0  0  0  0  0  0  0  0  0  0
   -9.2912   -0.2109   -0.1979 H   0  0  0  0  0  0  0  0  0  0  0  0
   -5.7783    0.2687   -1.0537 H   0  0  0  0  0  0  0  0  0  0  0  0
   -5.8094   -1.5203   -1.0826 H   0  0  0  0  0  0  0  0  0  0  0  0
   -3.3888   -0.9643   -1.6327 H   0  0  0  0  0  0  0  0  0  0  0  0
   -3.4831   -2.3159   -0.5220 H   0  0  0  0  0  0  0  0  0  0  0  0
   -1.2242   -1.6416   -1.6429 H   0  0  0  0  0  0  0  0  0  0  0  0
   -1.2296   -2.2671   -0.0065 H   0  0  0  0  0  0  0  0  0  0  0  0
    0.3234   -0.5303   -2.4830 H   0  0  0  0  0  0  0  0  0  0  0  0
    3.5136    2.5395   -3.1082 H   0  0  0  0  0  0  0  0  0  0  0  0
    5.7374    3.2146   -3.9456 H   0  0  0  0  0  0  0  0  0  0  0  0
    7.7867    2.2933   -2.9038 H   0  0  0  0  0  0  0  0  0  0  0  0
    7.6174    0.7067   -1.0267 H   0  0  0  0  0  0  0  0  0  0  0  0
    4.5939   -1.8210   -1.0707 H   0  0  0  0  0  0  0  0  0  0  0  0
    4.5136   -3.5126    0.7279 H   0  0  0  0  0  0  0  0  0  0  0  0
    5.2668   -2.9401    3.0101 H   0  0  0  0  0  0  0  0  0  0  0  0
  1  2  1  0
  2  3  1  0
  3  4  2  0
  4  5  1  0
  5  6  1  0
  6  7  1  0
  7  8  1  0
  8  9  1  0
  9 10  1  0
 10 11  1  0
 11 12  1  0
 12 13  1  0
 12 14  1  0
  8 15  1  0
 15 16  1  0
  4 17  1  0
 17 18  2  0
 18 19  1  0
 19 20  1  0
 20 21  2  0
 21 22  1  0
 22 23  2  0
 23 24  1  0
 24 25  2  0
 25 26  1  0
 26 27  2  0
 27 28  1  0
 28 29  2  0
 29 30  1  0
 30 31  1  0
 30 32  2  0
 32 33  1  0
 19  2  2  0
 25 20  1  0
 32 26  1  0
 16  5  1  0
 14  9  1  0
  1 34  1  0
  1 35  1  0
  6 36  1  0
  6 37  1  0
  7 38  1  0
  7 39  1  0
  8 40  1  0
 10 41  1  0
 10 42  1  0
 11 43  1  0
 11 44  1  0
 12 45  1  0
 13 46  1  0
 13 47  1  0
 14 48  1  0
 14 49  1  0
 15 50  1  0
 15 51  1  0
 16 52  1  0
 16 53  1  0
 17 54  1  0
 21 55  1  0
 22 56  1  0
 23 57  1  0
 24 58  1  0
 27 59  1  0
 28 60  1  0
 29 61  1  0
M  END
$$$$
