
     RDKit          3D

 60 64  0  0  0  0  0  0  0  0999 V2000
    2.7789    0.6898   -2.6334 N   0  0  0  0  0  0  0  0  0  0  0  0
    2.2657    0.8313   -1.3294 C   0  0  0  0  0  0  0  0  0  0  0  0
    0.9892    0.4251   -1.1405 N   0  0  0  0  0  0  0  0  0  0  0  0
    0.4394    0.5374    0.0912 C   0  0  0  0  0  0  0  0  0  0  0  0
   -0.8951    0.1525    0.2730 N   0  0  0  0  0  0  0  0  0  0  0  0
   -1.5056   -0.4445   -0.9271 C   0  0  0  0  0  0  0  0  0  0  0  0
   -2.8998   -1.0153   -0.6330 C   0  0  0  0  0  0  0  0  0  0  0  0
   -3.6141   -0.1856    0.4402 C   0  0  0  0  0  0  0  0  0  0  0  0
   -5.0075   -0.6164    0.6817 N   0  0  0  0  0  0  0  0  0  0  0  0
   -5.7161    0.2343    1.6500 C   0  0  0  0  0  0  0  0  0  0  0  0
   -7.1970    0.1699    1.2705 C   0  0  0  0  0  0  0  0  0  0  0  0
   -7.2683   -0.7556    0.0595 C   0  0  0  0  0  0  0  0  0  0  0  0
   -7.5442   -2.1438    0.4598 N   0  0  0  0  0  0  0  0  0  0  0  0
   -5.8553   -0.6201   -0.5244 C   0  0  0  0  0  0  0  0  0  0  0  0
   -2.7985   -0.2573    1.7524 C   0  0  0  0  0  0  0  0  0  0  0  0
   -1.2945   -0.4573    1.5363 C   0  0  0  0  0  0  0  0  0  0  0  0
    1.2137    1.1011    1.1113 C   0  0  0  0  0  0  0  0  0  0  0  0
    2.5003    1.5137    0.9730 N   0  0  0  0  0  0  0  0  0  0  0  0
    3.0255    1.3629   -0.2672 C   0  0  0  0  0  0  0  0  0  0  0  0
    4.4034    1.8598   -0.4160 C   0  0  0  0  0  0  0  0  0  0  0  0
    4.6259    3.2510   -0.3689 C   0  0  0  0  0  0  0  0  0  0  0  0
    5.9037    3.7874   -0.5220 C   0  0  0  0  0  0  0  0  0  0  0  0
    6.9884    2.9428   -0.7216 C   0  0  0  0  0  0  0  0  0  0  0  0
    6.7958    1.5621   -0.7561 C   0  0  0  0  0  0  0  0  0  0  0  0
    5.5140    0.9996   -0.5933 C   0  0  0  0  0  0  0  0  0  0  0  0
    5.3717   -0.4633   -0.6133 C   0  0  0  0  0  0  0  0  0  0  0  0
    5.0222   -0.9671   -1.8337 N   0  0  0  0  0  0  0  0  0  0  0  0
    4.8612   -2.3076   -1.9293 C   0  0  0  0  0  0  0  0  0  0  0  0
    5.0362   -3.1808   -0.8699 C   0  0  0  0  0  0  0  0  0  0  0  0
    5.3978   -2.6534    0.3668 C   0  0  0  0  0  0  0  0  0  0  0  0
    5.5697   -1.2765    0.5059 C   0  0  0  0  0  0  0  0  0  0  0  0
    6.0187   -0.6519    2.0491 Cl  0  0  0  0  0  0  0  0  0  0  0  0
    3.5974    0.0734   -2.5748 H   0  0  0  0  0  0  0  0  0  0  0  0
    3.1279    1.5872   -2.9514 H   0  0  0  0  0  0  0  0  0  0  0  0
   -1.6052    0.3323   -1.6992 H   0  0  0  0  0  0  0  0  0  0  0  0
   -0.8869   -1.2561   -1.3354 H   0  0  0  0  0  0  0  0  0  0  0  0
   -3.4569   -1.0406   -1.5755 H   0  0  0  0  0  0  0  0  0  0  0  0
   -2.8092   -2.0569   -0.2951 H   0  0  0  0  0  0  0  0  0  0  0  0
   -3.6259    0.8601    0.0979 H   0  0  0  0  0  0  0  0  0  0  0  0
   -5.3857    1.2793    1.6108 H   0  0  0  0  0  0  0  0  0  0  0  0
   -5.5595   -0.1341    2.6680 H   0  0  0  0  0  0  0  0  0  0  0  0
   -7.5397    1.1723    0.9815 H   0  0  0  0  0  0  0  0  0  0  0  0
   -7.8255   -0.1586    2.1064 H   0  0  0  0  0  0  0  0  0  0  0  0
   -8.0350   -0.4325   -0.6512 H   0  0  0  0  0  0  0  0  0  0  0  0
   -8.3360   -2.1681    1.0965 H   0  0  0  0  0  0  0  0  0  0  0  0
   -6.7355   -2.4720    0.9956 H   0  0  0  0  0  0  0  0  0  0  0  0
   -5.7673    0.3242   -1.0777 H   0  0  0  0  0  0  0  0  0  0  0  0
   -5.6220   -1.4495   -1.2005 H   0  0  0  0  0  0  0  0  0  0  0  0
   -2.9638    0.6685    2.3190 H   0  0  0  0  0  0  0  0  0  0  0  0
   -3.1533   -1.0742    2.3945 H   0  0  0  0  0  0  0  0  0  0  0  0
   -0.7797   -0.0467    2.4093 H   0  0  0  0  0  0  0  0  0  0  0  0
   -1.0589   -1.5284    1.5154 H   0  0  0  0  0  0  0  0  0  0  0  0
    0.8111    1.2737    2.1015 H   0  0  0  0  0  0  0  0  0  0  0  0
    3.7858    3.9241   -0.2036 H   0  0  0  0  0  0  0  0  0  0  0  0
    6.0501    4.8636   -0.4804 H   0  0  0  0  0  0  0  0  0  0  0  0
    7.9866    3.3560   -0.8418 H   0  0  0  0  0  0  0  0  0  0  0  0
    7.6576    0.9150   -0.9069 H   0  0  0  0  0  0  0  0  0  0  0  0
    4.5732   -2.6721   -2.9129 H   0  0  0  0  0  0  0  0  0  0  0  0
    4.8908   -4.2476   -1.0022 H   0  0  0  0  0  0  0  0  0  0  0  0
    5.5399   -3.3161    1.2163 H   0  0  0  0  0  0  0  0  0  0  0  0
  1  2  1  0
  2  3  1  0
  3  4  2  0
  4  5  1  0
  5  6  1  0
  6  7  1  0
  7  8  1  0
  8  9  1  0
  9 10  1  0
 10 11  1  0
 11 12  1  0
 12 13  1  0
 12 14  1  0
  8 15  1  0
 15 16  1  0
  4 17  1  0
 17 18  2  0
 18 19  1  0
 19 20  1  0
 20 21  2  0
 21 22  1  0
 22 23  2  0
 23 24  1  0
 24 25  2  0
 25 26  1  0
 26 27  1  0
 27 28  2  0
 28 29  1  0
 29 30  2  0
 30 31  1  0
 31 32  1  0
 19  2  2  0
 25 20  1  0
 31 26  2  0
 16  5  1  0
 14  9  1  0
  1 33  1  0
  1 34  1  0
  6 35  1  0
  6 36  1  0
  7 37  1  0
  7 38  1  0
  8 39  1  0
 10 40  1  0
 10 41  1  0
 11 42  1  0
 11 43  1  0
 12 44  1  0
 13 45  1  0
 13 46  1  0
 14 47  1  0
 14 48  1  0
 15 49  1  0
 15 50  1  0
 16 51  1  0
 16 52  1  0
 17 53  1  0
 21 54  1  0
 22 55  1  0
 23 56  1  0
 24 57  1  0
 28 58  1  0
 29 59  1  0
 30 60  1  0
M  END
$$$$
