
     RDKit          3D

 57 61  0  0  0  0  0  0  0  0999 V2000
    2.8436   -0.4655   -2.3359 N   0  0  0  0  0  0  0  0  0  0  0  0
    2.0736    0.2583   -1.4040 C   0  0  0  0  0  0  0  0  0  0  0  0
    0.7822   -0.1182   -1.2725 N   0  0  0  0  0  0  0  0  0  0  0  0
    0.0091    0.5380   -0.3785 C   0  0  0  0  0  0  0  0  0  0  0  0
   -1.3457    0.1773   -0.2209 N   0  0  0  0  0  0  0  0  0  0  0  0
   -1.8008   -0.8307   -1.1815 C   0  0  0  0  0  0  0  0  0  0  0  0
   -3.3318   -0.8812   -1.1977 C   0  0  0  0  0  0  0  0  0  0  0  0
   -3.9821   -0.5416    0.1630 C   0  0  0  0  0  0  0  0  0  0  0  0
   -5.2599   -1.2755    0.3240 N   0  0  0  0  0  0  0  0  0  0  0  0
   -6.2932   -0.8051   -0.6410 C   0  0  0  0  0  0  0  0  0  0  0  0
   -6.8783    0.1243    0.4379 C   0  0  0  0  0  0  0  0  0  0  0  0
   -8.3182   -0.1101    0.5944 N   0  0  0  0  0  0  0  0  0  0  0  0
   -6.0746   -0.7243    1.4403 C   0  0  0  0  0  0  0  0  0  0  0  0
   -2.9980   -0.9160    1.2814 C   0  0  0  0  0  0  0  0  0  0  0  0
   -1.7222   -0.0753    1.1778 C   0  0  0  0  0  0  0  0  0  0  0  0
    0.5672    1.5901    0.3575 C   0  0  0  0  0  0  0  0  0  0  0  0
    1.8572    1.9953    0.2637 N   0  0  0  0  0  0  0  0  0  0  0  0
    2.6132    1.3059   -0.6261 C   0  0  0  0  0  0  0  0  0  0  0  0
    4.0061    1.7699   -0.7355 C   0  0  0  0  0  0  0  0  0  0  0  0
    4.2612    3.0071   -1.3605 C   0  0  0  0  0  0  0  0  0  0  0  0
    5.5617    3.4904   -1.5066 C   0  0  0  0  0  0  0  0  0  0  0  0
    6.6339    2.7480   -1.0263 C   0  0  0  0  0  0  0  0  0  0  0  0
    6.4045    1.5278   -0.3903 C   0  0  0  0  0  0  0  0  0  0  0  0
    5.0980    1.0269   -0.2249 C   0  0  0  0  0  0  0  0  0  0  0  0
    4.9074   -0.2546    0.4693 C   0  0  0  0  0  0  0  0  0  0  0  0
    4.8371   -1.3293   -0.3702 N   0  0  0  0  0  0  0  0  0  0  0  0
    4.6468   -2.5444    0.1938 C   0  0  0  0  0  0  0  0  0  0  0  0
    4.5237   -2.7493    1.5571 C   0  0  0  0  0  0  0  0  0  0  0  0
    4.6002   -1.6448    2.4007 C   0  0  0  0  0  0  0  0  0  0  0  0
    4.7946   -0.3757    1.8573 C   0  0  0  0  0  0  0  0  0  0  0  0
    4.8848    0.9745    2.9254 Cl  0  0  0  0  0  0  0  0  0  0  0  0
    3.2837    0.1837   -2.9811 H   0  0  0  0  0  0  0  0  0  0  0  0
    3.6106   -0.9129   -1.8205 H   0  0  0  0  0  0  0  0  0  0  0  0
   -1.4696   -0.6036   -2.2032 H   0  0  0  0  0  0  0  0  0  0  0  0
   -1.3982   -1.8175   -0.9152 H   0  0  0  0  0  0  0  0  0  0  0  0
   -3.7026   -0.1729   -1.9496 H   0  0  0  0  0  0  0  0  0  0  0  0
   -3.6328   -1.8775   -1.5468 H   0  0  0  0  0  0  0  0  0  0  0  0
   -4.1518    0.5443    0.2011 H   0  0  0  0  0  0  0  0  0  0  0  0
   -6.9467   -1.6230   -0.9726 H   0  0  0  0  0  0  0  0  0  0  0  0
   -5.9430   -0.2878   -1.5405 H   0  0  0  0  0  0  0  0  0  0  0  0
   -6.5772    1.1739    0.3622 H   0  0  0  0  0  0  0  0  0  0  0  0
   -8.5773   -1.0970    0.6241 H   0  0  0  0  0  0  0  0  0  0  0  0
   -8.7092    0.3054    1.4387 H   0  0  0  0  0  0  0  0  0  0  0  0
   -5.5493   -0.1384    2.2020 H   0  0  0  0  0  0  0  0  0  0  0  0
   -6.6404   -1.5061    1.9635 H   0  0  0  0  0  0  0  0  0  0  0  0
   -2.7431   -1.9821    1.2088 H   0  0  0  0  0  0  0  0  0  0  0  0
   -3.4261   -0.7726    2.2793 H   0  0  0  0  0  0  0  0  0  0  0  0
   -0.9228   -0.5915    1.7252 H   0  0  0  0  0  0  0  0  0  0  0  0
   -1.9011    0.8859    1.6748 H   0  0  0  0  0  0  0  0  0  0  0  0
   -0.0339    2.1655    1.0526 H   0  0  0  0  0  0  0  0  0  0  0  0
    3.4297    3.6039   -1.7335 H   0  0  0  0  0  0  0  0  0  0  0  0
    5.7337    4.4477   -1.9921 H   0  0  0  0  0  0  0  0  0  0  0  0
    7.6491    3.1201   -1.1388 H   0  0  0  0  0  0  0  0  0  0  0  0
    7.2546    0.9604   -0.0150 H   0  0  0  0  0  0  0  0  0  0  0  0
    4.5887   -3.3763   -0.5038 H   0  0  0  0  0  0  0  0  0  0  0  0
    4.3683   -3.7466    1.9546 H   0  0  0  0  0  0  0  0  0  0  0  0
    4.5051   -1.7771    3.4749 H   0  0  0  0  0  0  0  0  0  0  0  0
  1  2  1  0
  2  3  1  0
  3  4  2  0
  4  5  1  0
  5  6  1  0
  6  7  1  0
  7  8  1  0
  8  9  1  0
  9 10  1  0
 10 11  1  0
 11 12  1  0
 11 13  1  0
  8 14  1  0
 14 15  1  0
  4 16  1  0
 16 17  2  0
 17 18  1  0
 18 19  1  0
 19 20  2  0
 20 21  1  0
 21 22  2  0
 22 23  1  0
 23 24  2  0
 24 25  1  0
 25 26  1  0
 26 27  2  0
 27 28  1  0
 28 29  2  0
 29 30  1  0
 30 31  1  0
 18  2  2  0
 24 19  1  0
 30 25  2  0
 15  5  1  0
 13  9  1  0
  1 32  1  0
  1 33  1  0
  6 34  1  0
  6 35  1  0
  7 36  1  0
  7 37  1  0
  8 38  1  0
 10 39  1  0
 10 40  1  0
 11 41  1  0
 12 42  1  0
 12 43  1  0
 13 44  1  0
 13 45  1  0
 14 46  1  0
 14 47  1  0
 15 48  1  0
 15 49  1  0
 16 50  1  0
 20 51  1  0
 21 52  1  0
 22 53  1  0
 23 54  1  0
 27 55  1  0
 28 56  1  0
 29 57  1  0
M  END
$$$$
