
     RDKit          3D

 67 71  0  0  0  0  0  0  0  0999 V2000
    3.2157    0.1383    1.9245 N   0  0  0  0  0  0  0  0  0  0  0  0
    2.4124   -0.5956    1.0460 C   0  0  0  0  0  0  0  0  0  0  0  0
    1.1433   -0.1469    0.9250 N   0  0  0  0  0  0  0  0  0  0  0  0
    0.3179   -0.8134    0.0847 C   0  0  0  0  0  0  0  0  0  0  0  0
   -1.0155   -0.3770   -0.0985 N   0  0  0  0  0  0  0  0  0  0  0  0
   -1.9917   -1.3789    0.3514 C   0  0  0  0  0  0  0  0  0  0  0  0
   -3.3999   -0.9298   -0.0494 C   0  0  0  0  0  0  0  0  0  0  0  0
   -3.7412    0.4633    0.5354 C   0  0  0  0  0  0  0  0  0  0  0  0
   -5.2081    0.9392    0.2210 C   0  0  0  0  0  0  0  0  0  0  0  0
   -5.4048    2.2925    0.7897 N   0  0  0  0  0  0  0  0  0  0  0  0
   -5.5094    1.0118   -1.2925 C   0  0  0  0  0  0  0  0  0  0  0  0
   -6.9682    1.3828   -1.5972 C   0  0  0  0  0  0  0  0  0  0  0  0
   -7.9627    0.7917   -0.6942 N   0  0  0  0  0  0  0  0  0  0  0  0
   -7.4269   -0.3688    0.0108 C   0  0  0  0  0  0  0  0  0  0  0  0
   -6.2537    0.0155    0.9170 C   0  0  0  0  0  0  0  0  0  0  0  0
   -2.6441    1.4509    0.0708 C   0  0  0  0  0  0  0  0  0  0  0  0
   -1.2463    0.9619    0.4607 C   0  0  0  0  0  0  0  0  0  0  0  0
    0.8043   -1.9222   -0.6201 C   0  0  0  0  0  0  0  0  0  0  0  0
    2.0652   -2.4069   -0.5126 N   0  0  0  0  0  0  0  0  0  0  0  0
    2.8797   -1.7083    0.3188 C   0  0  0  0  0  0  0  0  0  0  0  0
    4.2565   -2.2168    0.4153 C   0  0  0  0  0  0  0  0  0  0  0  0
    4.4901   -3.4117    1.1260 C   0  0  0  0  0  0  0  0  0  0  0  0
    5.7786   -3.9233    1.2777 C   0  0  0  0  0  0  0  0  0  0  0  0
    6.8588   -3.2534    0.7156 C   0  0  0  0  0  0  0  0  0  0  0  0
    6.6487   -2.0799   -0.0080 C   0  0  0  0  0  0  0  0  0  0  0  0
    5.3558   -1.5467   -0.1770 C   0  0  0  0  0  0  0  0  0  0  0  0
    5.1936   -0.3263   -0.9853 C   0  0  0  0  0  0  0  0  0  0  0  0
    4.6019   -0.3815   -2.2555 C   0  0  0  0  0  0  0  0  0  0  0  0
    4.4470    0.7725   -3.0240 C   0  0  0  0  0  0  0  0  0  0  0  0
    4.8795    2.0026   -2.5305 C   0  0  0  0  0  0  0  0  0  0  0  0
    5.4665    2.0915   -1.2604 C   0  0  0  0  0  0  0  0  0  0  0  0
    5.9469    3.4167   -0.7277 C   0  0  0  0  0  0  0  0  0  0  0  0
    5.8695    3.5154    0.6282 F   0  0  0  0  0  0  0  0  0  0  0  0
    7.2497    3.6581   -1.0423 F   0  0  0  0  0  0  0  0  0  0  0  0
    5.2455    4.4776   -1.2151 F   0  0  0  0  0  0  0  0  0  0  0  0
    5.6296    0.9184   -0.5036 C   0  0  0  0  0  0  0  0  0  0  0  0
    2.6250    0.8395    2.3628 H   0  0  0  0  0  0  0  0  0  0  0  0
    3.6858   -0.4593    2.5948 H   0  0  0  0  0  0  0  0  0  0  0  0
   -1.8103   -2.3569   -0.1102 H   0  0  0  0  0  0  0  0  0  0  0  0
   -1.9346   -1.5109    1.4403 H   0  0  0  0  0  0  0  0  0  0  0  0
   -3.4510   -0.9018   -1.1447 H   0  0  0  0  0  0  0  0  0  0  0  0
   -4.1130   -1.6895    0.2840 H   0  0  0  0  0  0  0  0  0  0  0  0
   -3.6577    0.3832    1.6303 H   0  0  0  0  0  0  0  0  0  0  0  0
   -5.0906    2.3176    1.7587 H   0  0  0  0  0  0  0  0  0  0  0  0
   -4.8476    2.9790    0.2834 H   0  0  0  0  0  0  0  0  0  0  0  0
   -5.3103    0.0396   -1.7586 H   0  0  0  0  0  0  0  0  0  0  0  0
   -4.8521    1.7308   -1.7957 H   0  0  0  0  0  0  0  0  0  0  0  0
   -7.2022    1.0759   -2.6234 H   0  0  0  0  0  0  0  0  0  0  0  0
   -7.0856    2.4731   -1.5767 H   0  0  0  0  0  0  0  0  0  0  0  0
   -8.1834    1.5015    0.0105 H   0  0  0  0  0  0  0  0  0  0  0  0
   -8.2214   -0.8100    0.6233 H   0  0  0  0  0  0  0  0  0  0  0  0
   -7.1294   -1.1446   -0.7053 H   0  0  0  0  0  0  0  0  0  0  0  0
   -6.6558    0.5037    1.8163 H   0  0  0  0  0  0  0  0  0  0  0  0
   -5.7973   -0.9046    1.2956 H   0  0  0  0  0  0  0  0  0  0  0  0
   -2.6886    1.5785   -1.0169 H   0  0  0  0  0  0  0  0  0  0  0  0
   -2.7875    2.4385    0.5206 H   0  0  0  0  0  0  0  0  0  0  0  0
   -1.1562    0.9537    1.5557 H   0  0  0  0  0  0  0  0  0  0  0  0
   -0.5157    1.6782    0.0626 H   0  0  0  0  0  0  0  0  0  0  0  0
    0.1737   -2.4502   -1.3275 H   0  0  0  0  0  0  0  0  0  0  0  0
    3.6506   -3.9513    1.5618 H   0  0  0  0  0  0  0  0  0  0  0  0
    5.9361   -4.8463    1.8288 H   0  0  0  0  0  0  0  0  0  0  0  0
    7.8647   -3.6494    0.8259 H   0  0  0  0  0  0  0  0  0  0  0  0
    7.5034   -1.5813   -0.4624 H   0  0  0  0  0  0  0  0  0  0  0  0
    4.2516   -1.3338   -2.6509 H   0  0  0  0  0  0  0  0  0  0  0  0
    3.9845    0.7099   -4.0056 H   0  0  0  0  0  0  0  0  0  0  0  0
    4.7495    2.8963   -3.1392 H   0  0  0  0  0  0  0  0  0  0  0  0
    6.0812    0.9777    0.4866 H   0  0  0  0  0  0  0  0  0  0  0  0
  1  2  1  0
  2  3  1  0
  3  4  2  0
  4  5  1  0
  5  6  1  0
  6  7  1  0
  7  8  1  0
  8  9  1  0
  9 10  1  0
  9 11  1  0
 11 12  1  0
 12 13  1  0
 13 14  1  0
 14 15  1  0
  8 16  1  0
 16 17  1  0
  4 18  1  0
 18 19  2  0
 19 20  1  0
 20 21  1  0
 21 22  2  0
 22 23  1  0
 23 24  2  0
 24 25  1  0
 25 26  2  0
 26 27  1  0
 27 28  1  0
 28 29  2  0
 29 30  1  0
 30 31  2  0
 31 32  1  0
 32 33  1  0
 32 34  1  0
 32 35  1  0
 31 36  1  0
 20  2  2  0
 26 21  1  0
 36 27  2  0
 17  5  1  0
 15  9  1  0
  1 37  1  0
  1 38  1  0
  6 39  1  0
  6 40  1  0
  7 41  1  0
  7 42  1  0
  8 43  1  0
 10 44  1  0
 10 45  1  0
 11 46  1  0
 11 47  1  0
 12 48  1  0
 12 49  1  0
 13 50  1  0
 14 51  1  0
 14 52  1  0
 15 53  1  0
 15 54  1  0
 16 55  1  0
 16 56  1  0
 17 57  1  0
 17 58  1  0
 18 59  1  0
 22 60  1  0
 23 61  1  0
 24 62  1  0
 25 63  1  0
 28 64  1  0
 29 65  1  0
 30 66  1  0
 36 67  1  0
M  END
$$$$
