
     RDKit          3D

 66 70  0  0  0  0  0  0  0  0999 V2000
    6.4622    1.3203   -2.9995 C   0  0  0  0  0  0  0  0  0  0  0  0
    6.5137    0.1788   -2.0914 N   0  0  0  0  0  0  0  0  0  0  0  0
    5.3887   -0.7359   -2.3302 C   0  0  0  0  0  0  0  0  0  0  0  0
    5.1059   -1.6187   -1.1126 C   0  0  0  0  0  0  0  0  0  0  0  0
    4.6224   -0.7743    0.1018 C   0  0  0  0  0  0  0  0  0  0  0  0
    5.0851   -1.4698    1.3163 N   0  0  0  0  0  0  0  0  0  0  0  0
    3.0537   -0.6044    0.1234 C   0  0  0  0  0  0  0  0  0  0  0  0
    2.2664   -1.9308    0.2498 C   0  0  0  0  0  0  0  0  0  0  0  0
    0.7542   -1.6947    0.2022 C   0  0  0  0  0  0  0  0  0  0  0  0
    0.3652   -0.7611    1.2677 N   0  0  0  0  0  0  0  0  0  0  0  0
   -1.0408   -0.6269    1.3780 C   0  0  0  0  0  0  0  0  0  0  0  0
   -1.6091    0.0353    2.4727 C   0  0  0  0  0  0  0  0  0  0  0  0
   -2.9389    0.2223    2.6497 N   0  0  0  0  0  0  0  0  0  0  0  0
   -3.7328   -0.2745    1.6659 C   0  0  0  0  0  0  0  0  0  0  0  0
   -5.1784   -0.0545    1.8628 C   0  0  0  0  0  0  0  0  0  0  0  0
   -5.7850   -0.6004    3.0156 C   0  0  0  0  0  0  0  0  0  0  0  0
   -7.1467   -0.4404    3.2710 C   0  0  0  0  0  0  0  0  0  0  0  0
   -7.9329    0.2824    2.3845 C   0  0  0  0  0  0  0  0  0  0  0  0
   -7.3553    0.8464    1.2468 C   0  0  0  0  0  0  0  0  0  0  0  0
   -5.9817    0.6877    0.9582 C   0  0  0  0  0  0  0  0  0  0  0  0
   -5.4246    1.3397   -0.2437 C   0  0  0  0  0  0  0  0  0  0  0  0
   -4.5393    2.3407    0.0252 N   0  0  0  0  0  0  0  0  0  0  0  0
   -3.9802    2.9868   -1.0198 C   0  0  0  0  0  0  0  0  0  0  0  0
   -4.2646    2.6992   -2.3425 C   0  0  0  0  0  0  0  0  0  0  0  0
   -5.1784    1.6858   -2.6120 C   0  0  0  0  0  0  0  0  0  0  0  0
   -5.7718    0.9928   -1.5557 C   0  0  0  0  0  0  0  0  0  0  0  0
   -6.8921   -0.2652   -1.9389 Cl  0  0  0  0  0  0  0  0  0  0  0  0
   -3.1860   -1.0048    0.5922 C   0  0  0  0  0  0  0  0  0  0  0  0
   -3.9620   -1.6062   -0.4040 N   0  0  0  0  0  0  0  0  0  0  0  0
   -1.8522   -1.1728    0.4428 N   0  0  0  0  0  0  0  0  0  0  0  0
    1.0339    0.5440    1.1753 C   0  0  0  0  0  0  0  0  0  0  0  0
    2.5514    0.3503    1.2349 C   0  0  0  0  0  0  0  0  0  0  0  0
    5.3052    0.6222    0.0473 C   0  0  0  0  0  0  0  0  0  0  0  0
    6.6464    0.5863   -0.6848 C   0  0  0  0  0  0  0  0  0  0  0  0
    5.5930    1.9594   -2.8096 H   0  0  0  0  0  0  0  0  0  0  0  0
    7.3667    1.9308   -2.9046 H   0  0  0  0  0  0  0  0  0  0  0  0
    6.4213    0.9827   -4.0415 H   0  0  0  0  0  0  0  0  0  0  0  0
    5.6326   -1.3725   -3.1886 H   0  0  0  0  0  0  0  0  0  0  0  0
    4.4740   -0.1864   -2.5885 H   0  0  0  0  0  0  0  0  0  0  0  0
    6.0312   -2.1606   -0.8648 H   0  0  0  0  0  0  0  0  0  0  0  0
    4.3893   -2.3967   -1.3880 H   0  0  0  0  0  0  0  0  0  0  0  0
    4.7141   -2.4180    1.3491 H   0  0  0  0  0  0  0  0  0  0  0  0
    4.7517   -0.9988    2.1546 H   0  0  0  0  0  0  0  0  0  0  0  0
    2.7698   -0.1537   -0.8390 H   0  0  0  0  0  0  0  0  0  0  0  0
    2.5131   -2.4286    1.1954 H   0  0  0  0  0  0  0  0  0  0  0  0
    2.5213   -2.6240   -0.5561 H   0  0  0  0  0  0  0  0  0  0  0  0
    0.2608   -2.6651    0.3407 H   0  0  0  0  0  0  0  0  0  0  0  0
    0.4761   -1.3055   -0.7864 H   0  0  0  0  0  0  0  0  0  0  0  0
   -0.9881    0.4314    3.2688 H   0  0  0  0  0  0  0  0  0  0  0  0
   -5.1760   -1.1525    3.7309 H   0  0  0  0  0  0  0  0  0  0  0  0
   -7.5855   -0.8697    4.1676 H   0  0  0  0  0  0  0  0  0  0  0  0
   -8.9923    0.4228    2.5825 H   0  0  0  0  0  0  0  0  0  0  0  0
   -7.9852    1.4329    0.5799 H   0  0  0  0  0  0  0  0  0  0  0  0
   -3.2741    3.7684   -0.7537 H   0  0  0  0  0  0  0  0  0  0  0  0
   -3.7854    3.2493   -3.1448 H   0  0  0  0  0  0  0  0  0  0  0  0
   -5.4198    1.4353   -3.6411 H   0  0  0  0  0  0  0  0  0  0  0  0
   -4.6978   -2.1815   -0.0080 H   0  0  0  0  0  0  0  0  0  0  0  0
   -3.3300   -2.1347   -0.9984 H   0  0  0  0  0  0  0  0  0  0  0  0
    0.7586    1.0515    0.2411 H   0  0  0  0  0  0  0  0  0  0  0  0
    0.7536    1.2036    2.0047 H   0  0  0  0  0  0  0  0  0  0  0  0
    2.8162   -0.0474    2.2221 H   0  0  0  0  0  0  0  0  0  0  0  0
    3.0207    1.3356    1.1487 H   0  0  0  0  0  0  0  0  0  0  0  0
    5.4544    1.0243    1.0578 H   0  0  0  0  0  0  0  0  0  0  0  0
    4.6571    1.3439   -0.4683 H   0  0  0  0  0  0  0  0  0  0  0  0
    7.3154   -0.1233   -0.1817 H   0  0  0  0  0  0  0  0  0  0  0  0
    7.1419    1.5616   -0.6012 H   0  0  0  0  0  0  0  0  0  0  0  0
  1  2  1  0
  2  3  1  0
  3  4  1  0
  4  5  1  0
  5  6  1  0
  5  7  1  0
  7  8  1  0
  8  9  1  0
  9 10  1  0
 10 11  1  0
 11 12  1  0
 12 13  2  0
 13 14  1  0
 14 15  1  0
 15 16  2  0
 16 17  1  0
 17 18  2  0
 18 19  1  0
 19 20  2  0
 20 21  1  0
 21 22  1  0
 22 23  2  0
 23 24  1  0
 24 25  2  0
 25 26  1  0
 26 27  1  0
 14 28  2  0
 28 29  1  0
 28 30  1  0
 10 31  1  0
 31 32  1  0
  5 33  1  0
 33 34  1  0
 34  2  1  0
 32  7  1  0
 30 11  2  0
 20 15  1  0
 26 21  2  0
  1 35  1  0
  1 36  1  0
  1 37  1  0
  3 38  1  0
  3 39  1  0
  4 40  1  0
  4 41  1  0
  6 42  1  0
  6 43  1  0
  7 44  1  0
  8 45  1  0
  8 46  1  0
  9 47  1  0
  9 48  1  0
 12 49  1  0
 16 50  1  0
 17 51  1  0
 18 52  1  0
 19 53  1  0
 23 54  1  0
 24 55  1  0
 25 56  1  0
 29 57  1  0
 29 58  1  0
 31 59  1  0
 31 60  1  0
 32 61  1  0
 32 62  1  0
 33 63  1  0
 33 64  1  0
 34 65  1  0
 34 66  1  0
M  END
$$$$
