
     RDKit          3D

 70 74  0  0  0  0  0  0  0  0999 V2000
   -6.7293    2.7574   -0.4593 C   0  0  0  0  0  0  0  0  0  0  0  0
   -6.4138    1.3883   -0.8640 N   0  0  0  0  0  0  0  0  0  0  0  0
   -5.2447    1.3626   -1.7461 C   0  0  0  0  0  0  0  0  0  0  0  0
   -4.9309   -0.0570   -2.2127 C   0  0  0  0  0  0  0  0  0  0  0  0
   -4.7359   -1.0705   -1.0645 C   0  0  0  0  0  0  0  0  0  0  0  0
   -4.8990   -2.4173   -1.6731 N   0  0  0  0  0  0  0  0  0  0  0  0
   -3.3114   -1.0673   -0.3838 C   0  0  0  0  0  0  0  0  0  0  0  0
   -3.0303    0.0487    0.6429 C   0  0  0  0  0  0  0  0  0  0  0  0
   -1.5428    0.3642    0.8489 C   0  0  0  0  0  0  0  0  0  0  0  0
   -0.7344   -0.8416    0.6752 N   0  0  0  0  0  0  0  0  0  0  0  0
    0.5899   -0.7045    1.1427 C   0  0  0  0  0  0  0  0  0  0  0  0
    1.4747   -1.7917    1.1521 C   0  0  0  0  0  0  0  0  0  0  0  0
    2.7656   -1.7296    1.5649 N   0  0  0  0  0  0  0  0  0  0  0  0
    3.1739   -0.5063    1.9860 C   0  0  0  0  0  0  0  0  0  0  0  0
    4.5863   -0.4147    2.3806 C   0  0  0  0  0  0  0  0  0  0  0  0
    4.9742   -0.8546    3.6608 C   0  0  0  0  0  0  0  0  0  0  0  0
    6.2984   -0.7505    4.0870 C   0  0  0  0  0  0  0  0  0  0  0  0
    7.2597   -0.2094    3.2395 C   0  0  0  0  0  0  0  0  0  0  0  0
    6.8988    0.2166    1.9609 C   0  0  0  0  0  0  0  0  0  0  0  0
    5.5696    0.1152    1.5090 C   0  0  0  0  0  0  0  0  0  0  0  0
    5.2491    0.5327    0.1348 C   0  0  0  0  0  0  0  0  0  0  0  0
    5.1369    1.8886   -0.2019 C   0  0  0  0  0  0  0  0  0  0  0  0
    4.8132    2.2766   -1.5032 C   0  0  0  0  0  0  0  0  0  0  0  0
    4.6020    1.3115   -2.4885 C   0  0  0  0  0  0  0  0  0  0  0  0
    4.7152   -0.0523   -2.1818 C   0  0  0  0  0  0  0  0  0  0  0  0
    4.4521   -1.1031   -3.2304 C   0  0  0  0  0  0  0  0  0  0  0  0
    5.1801   -2.2410   -3.0485 F   0  0  0  0  0  0  0  0  0  0  0  0
    3.1460   -1.4937   -3.2579 F   0  0  0  0  0  0  0  0  0  0  0  0
    4.7392   -0.6815   -4.4947 F   0  0  0  0  0  0  0  0  0  0  0  0
    5.0343   -0.4282   -0.8673 C   0  0  0  0  0  0  0  0  0  0  0  0
    2.2932    0.5900    2.0329 C   0  0  0  0  0  0  0  0  0  0  0  0
    2.6748    1.8623    2.4753 N   0  0  0  0  0  0  0  0  0  0  0  0
    1.0132    0.4922    1.6122 N   0  0  0  0  0  0  0  0  0  0  0  0
   -0.8172   -1.4725   -0.6513 C   0  0  0  0  0  0  0  0  0  0  0  0
   -2.1303   -1.1324   -1.3719 C   0  0  0  0  0  0  0  0  0  0  0  0
   -5.9045   -0.9219   -0.0621 C   0  0  0  0  0  0  0  0  0  0  0  0
   -6.2542    0.5242    0.3093 C   0  0  0  0  0  0  0  0  0  0  0  0
   -7.6583    2.7843    0.1193 H   0  0  0  0  0  0  0  0  0  0  0  0
   -5.9317    3.1990    0.1463 H   0  0  0  0  0  0  0  0  0  0  0  0
   -6.8856    3.3928   -1.3365 H   0  0  0  0  0  0  0  0  0  0  0  0
   -5.4574    1.9627   -2.6388 H   0  0  0  0  0  0  0  0  0  0  0  0
   -4.3685    1.8198   -1.2785 H   0  0  0  0  0  0  0  0  0  0  0  0
   -5.7756   -0.3811   -2.8411 H   0  0  0  0  0  0  0  0  0  0  0  0
   -4.0658   -0.0385   -2.8853 H   0  0  0  0  0  0  0  0  0  0  0  0
   -4.2432   -2.5599   -2.4386 H   0  0  0  0  0  0  0  0  0  0  0  0
   -4.7324   -3.1468   -0.9823 H   0  0  0  0  0  0  0  0  0  0  0  0
   -3.2632   -1.9981    0.2045 H   0  0  0  0  0  0  0  0  0  0  0  0
   -3.4655   -0.2520    1.6057 H   0  0  0  0  0  0  0  0  0  0  0  0
   -3.5016    0.9914    0.3707 H   0  0  0  0  0  0  0  0  0  0  0  0
   -1.4379    0.7854    1.8570 H   0  0  0  0  0  0  0  0  0  0  0  0
   -1.2281    1.1368    0.1349 H   0  0  0  0  0  0  0  0  0  0  0  0
    1.1548   -2.7751    0.8246 H   0  0  0  0  0  0  0  0  0  0  0  0
    4.2339   -1.2888    4.3306 H   0  0  0  0  0  0  0  0  0  0  0  0
    6.5798   -1.0981    5.0773 H   0  0  0  0  0  0  0  0  0  0  0  0
    8.2935   -0.1300    3.5659 H   0  0  0  0  0  0  0  0  0  0  0  0
    7.6664    0.6182    1.3009 H   0  0  0  0  0  0  0  0  0  0  0  0
    5.2767    2.6515    0.5624 H   0  0  0  0  0  0  0  0  0  0  0  0
    4.7148    3.3321   -1.7431 H   0  0  0  0  0  0  0  0  0  0  0  0
    4.3399    1.6271   -3.4976 H   0  0  0  0  0  0  0  0  0  0  0  0
    5.1045   -1.4873   -0.6108 H   0  0  0  0  0  0  0  0  0  0  0  0
    3.1371    1.8243    3.3762 H   0  0  0  0  0  0  0  0  0  0  0  0
    1.8384    2.4384    2.4823 H   0  0  0  0  0  0  0  0  0  0  0  0
   -0.7605   -2.5615   -0.5280 H   0  0  0  0  0  0  0  0  0  0  0  0
    0.0148   -1.1662   -1.3012 H   0  0  0  0  0  0  0  0  0  0  0  0
   -2.0195   -0.1633   -1.8763 H   0  0  0  0  0  0  0  0  0  0  0  0
   -2.2868   -1.8772   -2.1592 H   0  0  0  0  0  0  0  0  0  0  0  0
   -5.7017   -1.4966    0.8519 H   0  0  0  0  0  0  0  0  0  0  0  0
   -6.8141   -1.3652   -0.4962 H   0  0  0  0  0  0  0  0  0  0  0  0
   -5.5178    0.9337    1.0055 H   0  0  0  0  0  0  0  0  0  0  0  0
   -7.2012    0.4988    0.8642 H   0  0  0  0  0  0  0  0  0  0  0  0
  1  2  1  0
  2  3  1  0
  3  4  1  0
  4  5  1  0
  5  6  1  0
  5  7  1  0
  7  8  1  0
  8  9  1  0
  9 10  1  0
 10 11  1  0
 11 12  1  0
 12 13  2  0
 13 14  1  0
 14 15  1  0
 15 16  2  0
 16 17  1  0
 17 18  2  0
 18 19  1  0
 19 20  2  0
 20 21  1  0
 21 22  1  0
 22 23  2  0
 23 24  1  0
 24 25  2  0
 25 26  1  0
 26 27  1  0
 26 28  1  0
 26 29  1  0
 25 30  1  0
 14 31  2  0
 31 32  1  0
 31 33  1  0
 10 34  1  0
 34 35  1  0
  5 36  1  0
 36 37  1  0
 37  2  1  0
 35  7  1  0
 33 11  2  0
 20 15  1  0
 30 21  2  0
  1 38  1  0
  1 39  1  0
  1 40  1  0
  3 41  1  0
  3 42  1  0
  4 43  1  0
  4 44  1  0
  6 45  1  0
  6 46  1  0
  7 47  1  0
  8 48  1  0
  8 49  1  0
  9 50  1  0
  9 51  1  0
 12 52  1  0
 16 53  1  0
 17 54  1  0
 18 55  1  0
 19 56  1  0
 22 57  1  0
 23 58  1  0
 24 59  1  0
 30 60  1  0
 32 61  1  0
 32 62  1  0
 34 63  1  0
 34 64  1  0
 35 65  1  0
 35 66  1  0
 36 67  1  0
 36 68  1  0
 37 69  1  0
 37 70  1  0
M  END
$$$$
