
     RDKit          3D

 67 71  0  0  0  0  0  0  0  0999 V2000
    8.0646    1.0707   -1.6096 C   0  0  0  0  0  0  0  0  0  0  0  0
    7.1351    0.1443   -0.9637 N   0  0  0  0  0  0  0  0  0  0  0  0
    6.3823   -0.6395   -1.9520 C   0  0  0  0  0  0  0  0  0  0  0  0
    4.8754   -0.7394   -1.6753 C   0  0  0  0  0  0  0  0  0  0  0  0
    4.5473   -1.0629   -0.2025 C   0  0  0  0  0  0  0  0  0  0  0  0
    4.9047   -2.4784    0.0496 N   0  0  0  0  0  0  0  0  0  0  0  0
    3.0221   -0.9029    0.1258 C   0  0  0  0  0  0  0  0  0  0  0  0
    2.1085   -1.9435   -0.5699 C   0  0  0  0  0  0  0  0  0  0  0  0
    0.6528   -1.4804   -0.7403 C   0  0  0  0  0  0  0  0  0  0  0  0
    0.2830   -0.5861    0.3525 N   0  0  0  0  0  0  0  0  0  0  0  0
   -1.0503   -0.4566    0.7436 C   0  0  0  0  0  0  0  0  0  0  0  0
   -1.9632   -1.5160    0.7132 C   0  0  0  0  0  0  0  0  0  0  0  0
   -3.2583   -1.4360    1.1161 N   0  0  0  0  0  0  0  0  0  0  0  0
   -3.6369   -0.2269    1.5952 C   0  0  0  0  0  0  0  0  0  0  0  0
   -5.0292   -0.1503    2.0583 C   0  0  0  0  0  0  0  0  0  0  0  0
   -5.3372   -0.5700    3.3672 C   0  0  0  0  0  0  0  0  0  0  0  0
   -6.6399   -0.4937    3.8614 C   0  0  0  0  0  0  0  0  0  0  0  0
   -7.6589   -0.0005    3.0528 C   0  0  0  0  0  0  0  0  0  0  0  0
   -7.3766    0.4056    1.7482 C   0  0  0  0  0  0  0  0  0  0  0  0
   -6.0702    0.3306    1.2286 C   0  0  0  0  0  0  0  0  0  0  0  0
   -5.8377    0.7224   -0.1702 C   0  0  0  0  0  0  0  0  0  0  0  0
   -5.9059   -0.2387   -1.1940 C   0  0  0  0  0  0  0  0  0  0  0  0
   -5.6821    0.1185   -2.5266 C   0  0  0  0  0  0  0  0  0  0  0  0
   -5.3868    1.4425   -2.8542 C   0  0  0  0  0  0  0  0  0  0  0  0
   -5.3127    2.4061   -1.8478 C   0  0  0  0  0  0  0  0  0  0  0  0
   -4.9359    4.0344   -2.2644 Cl  0  0  0  0  0  0  0  0  0  0  0  0
   -5.5343    2.0455   -0.5182 C   0  0  0  0  0  0  0  0  0  0  0  0
   -5.4269    2.9676    0.4546 F   0  0  0  0  0  0  0  0  0  0  0  0
   -2.7404    0.8545    1.6723 C   0  0  0  0  0  0  0  0  0  0  0  0
   -3.1063    2.1099    2.1928 N   0  0  0  0  0  0  0  0  0  0  0  0
   -1.4661    0.7323    1.2441 N   0  0  0  0  0  0  0  0  0  0  0  0
    1.0624    0.6599    0.4570 C   0  0  0  0  0  0  0  0  0  0  0  0
    2.4621    0.5033   -0.1481 C   0  0  0  0  0  0  0  0  0  0  0  0
    5.4060   -0.1765    0.7483 C   0  0  0  0  0  0  0  0  0  0  0  0
    6.2840    0.8339    0.0042 C   0  0  0  0  0  0  0  0  0  0  0  0
    8.6680    1.6037   -0.8633 H   0  0  0  0  0  0  0  0  0  0  0  0
    7.5388    1.8157   -2.2211 H   0  0  0  0  0  0  0  0  0  0  0  0
    8.7647    0.5253   -2.2528 H   0  0  0  0  0  0  0  0  0  0  0  0
    6.8192   -1.6451   -1.9819 H   0  0  0  0  0  0  0  0  0  0  0  0
    6.4993   -0.2304   -2.9658 H   0  0  0  0  0  0  0  0  0  0  0  0
    4.4277    0.2181   -1.9656 H   0  0  0  0  0  0  0  0  0  0  0  0
    4.4451   -1.4881   -2.3521 H   0  0  0  0  0  0  0  0  0  0  0  0
    5.9192   -2.5866   -0.0322 H   0  0  0  0  0  0  0  0  0  0  0  0
    4.6886   -2.7158    1.0200 H   0  0  0  0  0  0  0  0  0  0  0  0
    2.9142   -1.0761    1.2097 H   0  0  0  0  0  0  0  0  0  0  0  0
    2.1177   -2.8632    0.0315 H   0  0  0  0  0  0  0  0  0  0  0  0
    2.4893   -2.2236   -1.5569 H   0  0  0  0  0  0  0  0  0  0  0  0
    0.0344   -2.3792   -0.7964 H   0  0  0  0  0  0  0  0  0  0  0  0
    0.5301   -0.9572   -1.6974 H   0  0  0  0  0  0  0  0  0  0  0  0
   -1.6749   -2.5072    0.3876 H   0  0  0  0  0  0  0  0  0  0  0  0
   -4.5517   -0.9711    4.0058 H   0  0  0  0  0  0  0  0  0  0  0  0
   -6.8577   -0.8271    4.8712 H   0  0  0  0  0  0  0  0  0  0  0  0
   -8.6784    0.0580    3.4311 H   0  0  0  0  0  0  0  0  0  0  0  0
   -8.1906    0.7733    1.1250 H   0  0  0  0  0  0  0  0  0  0  0  0
   -6.1203   -1.2792   -0.9475 H   0  0  0  0  0  0  0  0  0  0  0  0
   -5.7311   -0.6390   -3.3092 H   0  0  0  0  0  0  0  0  0  0  0  0
   -5.2073    1.7149   -3.8912 H   0  0  0  0  0  0  0  0  0  0  0  0
   -3.4770    1.9919    3.1310 H   0  0  0  0  0  0  0  0  0  0  0  0
   -3.8578    2.5044    1.6289 H   0  0  0  0  0  0  0  0  0  0  0  0
    0.5669    1.4955   -0.0589 H   0  0  0  0  0  0  0  0  0  0  0  0
    1.1705    0.9273    1.5166 H   0  0  0  0  0  0  0  0  0  0  0  0
    2.3976    0.6747   -1.2298 H   0  0  0  0  0  0  0  0  0  0  0  0
    3.1081    1.2902    0.2534 H   0  0  0  0  0  0  0  0  0  0  0  0
    4.7795    0.3628    1.4691 H   0  0  0  0  0  0  0  0  0  0  0  0
    6.0610   -0.8024    1.3727 H   0  0  0  0  0  0  0  0  0  0  0  0
    6.9075    1.3491    0.7465 H   0  0  0  0  0  0  0  0  0  0  0  0
    5.6649    1.6029   -0.4769 H   0  0  0  0  0  0  0  0  0  0  0  0
  1  2  1  0
  2  3  1  0
  3  4  1  0
  4  5  1  0
  5  6  1  0
  5  7  1  0
  7  8  1  0
  8  9  1  0
  9 10  1  0
 10 11  1  0
 11 12  1  0
 12 13  2  0
 13 14  1  0
 14 15  1  0
 15 16  2  0
 16 17  1  0
 17 18  2  0
 18 19  1  0
 19 20  2  0
 20 21  1  0
 21 22  2  0
 22 23  1  0
 23 24  2  0
 24 25  1  0
 25 26  1  0
 25 27  2  0
 27 28  1  0
 14 29  2  0
 29 30  1  0
 29 31  1  0
 10 32  1  0
 32 33  1  0
  5 34  1  0
 34 35  1  0
 35  2  1  0
 33  7  1  0
 31 11  2  0
 20 15  1  0
 27 21  1  0
  1 36  1  0
  1 37  1  0
  1 38  1  0
  3 39  1  0
  3 40  1  0
  4 41  1  0
  4 42  1  0
  6 43  1  0
  6 44  1  0
  7 45  1  0
  8 46  1  0
  8 47  1  0
  9 48  1  0
  9 49  1  0
 12 50  1  0
 16 51  1  0
 17 52  1  0
 18 53  1  0
 19 54  1  0
 22 55  1  0
 23 56  1  0
 24 57  1  0
 30 58  1  0
 30 59  1  0
 32 60  1  0
 32 61  1  0
 33 62  1  0
 33 63  1  0
 34 64  1  0
 34 65  1  0
 35 66  1  0
 35 67  1  0
M  END
$$$$
