
     RDKit          3D

 63 67  0  0  0  0  0  0  0  0999 V2000
    2.7375   -2.8372   -1.5186 N   0  0  0  0  0  0  0  0  0  0  0  0
    2.4146   -1.9217   -0.4996 C   0  0  0  0  0  0  0  0  0  0  0  0
    1.1077   -1.6010   -0.3834 N   0  0  0  0  0  0  0  0  0  0  0  0
    0.7472   -0.6971    0.5558 C   0  0  0  0  0  0  0  0  0  0  0  0
   -0.6089   -0.3468    0.7066 N   0  0  0  0  0  0  0  0  0  0  0  0
   -1.5203   -1.1213   -0.1349 C   0  0  0  0  0  0  0  0  0  0  0  0
   -2.9563   -0.9660    0.3779 C   0  0  0  0  0  0  0  0  0  0  0  0
   -3.2954    0.4526    0.9013 C   0  0  0  0  0  0  0  0  0  0  0  0
   -4.7956    0.8533    0.6817 C   0  0  0  0  0  0  0  0  0  0  0  0
   -5.0581    2.1179    1.4094 N   0  0  0  0  0  0  0  0  0  0  0  0
   -5.1403    1.0708   -0.8177 C   0  0  0  0  0  0  0  0  0  0  0  0
   -6.5562    0.6135   -1.1946 C   0  0  0  0  0  0  0  0  0  0  0  0
   -7.5265    0.9136   -0.1464 N   0  0  0  0  0  0  0  0  0  0  0  0
   -7.2369    0.1450    1.0718 C   0  0  0  0  0  0  0  0  0  0  0  0
   -5.7545   -0.2080    1.2719 C   0  0  0  0  0  0  0  0  0  0  0  0
   -2.2790    1.4638    0.3392 C   0  0  0  0  0  0  0  0  0  0  0  0
   -0.8477    1.1012    0.7533 C   0  0  0  0  0  0  0  0  0  0  0  0
    1.7362   -0.1456    1.3775 C   0  0  0  0  0  0  0  0  0  0  0  0
    3.0573   -0.4312    1.2858 N   0  0  0  0  0  0  0  0  0  0  0  0
    3.3914   -1.3272    0.3278 C   0  0  0  0  0  0  0  0  0  0  0  0
    4.8270   -1.6445    0.2456 C   0  0  0  0  0  0  0  0  0  0  0  0
    5.2761   -2.8932    0.7264 C   0  0  0  0  0  0  0  0  0  0  0  0
    6.6255   -3.2451    0.6837 C   0  0  0  0  0  0  0  0  0  0  0  0
    7.5570   -2.3503    0.1725 C   0  0  0  0  0  0  0  0  0  0  0  0
    7.1387   -1.1041   -0.2940 C   0  0  0  0  0  0  0  0  0  0  0  0
    5.7789   -0.7306   -0.2729 C   0  0  0  0  0  0  0  0  0  0  0  0
    5.4099    0.6023   -0.7807 C   0  0  0  0  0  0  0  0  0  0  0  0
    5.7279    1.6276    0.0581 N   0  0  0  0  0  0  0  0  0  0  0  0
    5.4092    2.8804   -0.3313 C   0  0  0  0  0  0  0  0  0  0  0  0
    4.8046    3.1792   -1.5396 C   0  0  0  0  0  0  0  0  0  0  0  0
    4.5151    2.1306   -2.4068 C   0  0  0  0  0  0  0  0  0  0  0  0
    4.8251    0.8231   -2.0325 C   0  0  0  0  0  0  0  0  0  0  0  0
    4.5147   -0.4456   -3.1606 Cl  0  0  0  0  0  0  0  0  0  0  0  0
    3.3426   -2.3717   -2.1930 H   0  0  0  0  0  0  0  0  0  0  0  0
    3.2661   -3.6113   -1.1287 H   0  0  0  0  0  0  0  0  0  0  0  0
   -1.2840   -2.1932   -0.1172 H   0  0  0  0  0  0  0  0  0  0  0  0
   -1.4557   -0.7849   -1.1782 H   0  0  0  0  0  0  0  0  0  0  0  0
   -3.6316   -1.2793   -0.4256 H   0  0  0  0  0  0  0  0  0  0  0  0
   -3.1180   -1.6767    1.1995 H   0  0  0  0  0  0  0  0  0  0  0  0
   -3.1314    0.4205    1.9902 H   0  0  0  0  0  0  0  0  0  0  0  0
   -4.5182    2.8838    1.0126 H   0  0  0  0  0  0  0  0  0  0  0  0
   -4.7641    2.0263    2.3817 H   0  0  0  0  0  0  0  0  0  0  0  0
   -5.0226    2.1306   -1.0827 H   0  0  0  0  0  0  0  0  0  0  0  0
   -4.4384    0.5361   -1.4679 H   0  0  0  0  0  0  0  0  0  0  0  0
   -6.5653   -0.4610   -1.4174 H   0  0  0  0  0  0  0  0  0  0  0  0
   -6.8597    1.1167   -2.1196 H   0  0  0  0  0  0  0  0  0  0  0  0
   -7.4089    1.9010    0.1011 H   0  0  0  0  0  0  0  0  0  0  0  0
   -7.8236   -0.7812    1.0563 H   0  0  0  0  0  0  0  0  0  0  0  0
   -7.6009    0.7166    1.9341 H   0  0  0  0  0  0  0  0  0  0  0  0
   -5.5601   -0.3598    2.3416 H   0  0  0  0  0  0  0  0  0  0  0  0
   -5.5769   -1.1776    0.7902 H   0  0  0  0  0  0  0  0  0  0  0  0
   -2.4825    2.4825    0.6844 H   0  0  0  0  0  0  0  0  0  0  0  0
   -2.3423    1.4883   -0.7558 H   0  0  0  0  0  0  0  0  0  0  0  0
   -0.6830    1.4518    1.7795 H   0  0  0  0  0  0  0  0  0  0  0  0
   -0.1554    1.6479    0.0994 H   0  0  0  0  0  0  0  0  0  0  0  0
    1.4832    0.5517    2.1680 H   0  0  0  0  0  0  0  0  0  0  0  0
    4.5661   -3.5944    1.1632 H   0  0  0  0  0  0  0  0  0  0  0  0
    6.9493   -4.2096    1.0669 H   0  0  0  0  0  0  0  0  0  0  0  0
    8.6119   -2.6120    0.1505 H   0  0  0  0  0  0  0  0  0  0  0  0
    7.8832   -0.4040   -0.6706 H   0  0  0  0  0  0  0  0  0  0  0  0
    5.6636    3.6628    0.3784 H   0  0  0  0  0  0  0  0  0  0  0  0
    4.5734    4.2053   -1.8036 H   0  0  0  0  0  0  0  0  0  0  0  0
    4.0572    2.3361   -3.3704 H   0  0  0  0  0  0  0  0  0  0  0  0
  1  2  1  0
  2  3  1  0
  3  4  2  0
  4  5  1  0
  5  6  1  0
  6  7  1  0
  7  8  1  0
  8  9  1  0
  9 10  1  0
  9 11  1  0
 11 12  1  0
 12 13  1  0
 13 14  1  0
 14 15  1  0
  8 16  1  0
 16 17  1  0
  4 18  1  0
 18 19  2  0
 19 20  1  0
 20 21  1  0
 21 22  2  0
 22 23  1  0
 23 24  2  0
 24 25  1  0
 25 26  2  0
 26 27  1  0
 27 28  1  0
 28 29  2  0
 29 30  1  0
 30 31  2  0
 31 32  1  0
 32 33  1  0
 20  2  2  0
 26 21  1  0
 32 27  2  0
 17  5  1  0
 15  9  1  0
  1 34  1  0
  1 35  1  0
  6 36  1  0
  6 37  1  0
  7 38  1  0
  7 39  1  0
  8 40  1  0
 10 41  1  0
 10 42  1  0
 11 43  1  0
 11 44  1  0
 12 45  1  0
 12 46  1  0
 13 47  1  0
 14 48  1  0
 14 49  1  0
 15 50  1  0
 15 51  1  0
 16 52  1  0
 16 53  1  0
 17 54  1  0
 17 55  1  0
 18 56  1  0
 22 57  1  0
 23 58  1  0
 24 59  1  0
 25 60  1  0
 29 61  1  0
 30 62  1  0
 31 63  1  0
M  END
$$$$
