
     RDKit          3D

 82 87  0  0  0  0  0  0  0  0999 V2000
    4.7262   -5.3391    3.9823 C   0  0  0  0  0  0  0  0  0  0  0  0
    5.9424   -4.0504    3.8897 S   0  0  0  0  0  0  0  0  0  0  0  0
    6.1728   -3.5520    5.2328 O   0  0  0  0  0  0  0  0  0  0  0  0
    7.0438   -4.5267    3.0749 O   0  0  0  0  0  0  0  0  0  0  0  0
    5.1156   -2.7715    2.9761 C   0  0  0  0  0  0  0  0  0  0  0  0
    5.1755   -2.7696    1.5843 C   0  0  0  0  0  0  0  0  0  0  0  0
    4.5432   -1.7473    0.8668 C   0  0  0  0  0  0  0  0  0  0  0  0
    3.8681   -0.7087    1.5192 C   0  0  0  0  0  0  0  0  0  0  0  0
    3.2170    0.3366    0.8567 N   0  0  0  0  0  0  0  0  0  0  0  0
    3.1061    0.7147   -0.4787 C   0  0  0  0  0  0  0  0  0  0  0  0
    3.5383   -0.0672   -1.4784 N   0  0  0  0  0  0  0  0  0  0  0  0
    3.3978    0.3961   -2.7312 C   0  0  0  0  0  0  0  0  0  0  0  0
    2.8263    1.6060   -3.0272 C   0  0  0  0  0  0  0  0  0  0  0  0
    2.3871    2.3445   -1.9473 C   0  0  0  0  0  0  0  0  0  0  0  0
    1.7521    3.6629   -2.1244 C   0  0  0  0  0  0  0  0  0  0  0  0
    2.4961    4.6831   -2.7545 C   0  0  0  0  0  0  0  0  0  0  0  0
    1.9600    5.9521   -2.9826 C   0  0  0  0  0  0  0  0  0  0  0  0
    0.6508    6.2444   -2.5942 C   0  0  0  0  0  0  0  0  0  0  0  0
    0.0788    7.6233   -2.8191 C   0  0  0  0  0  0  0  0  0  0  0  0
    0.4541    8.1634   -4.0128 F   0  0  0  0  0  0  0  0  0  0  0  0
    0.4752    8.5108   -1.8664 F   0  0  0  0  0  0  0  0  0  0  0  0
   -1.2830    7.6492   -2.8135 F   0  0  0  0  0  0  0  0  0  0  0  0
   -0.0986    5.2458   -1.9560 C   0  0  0  0  0  0  0  0  0  0  0  0
    0.4319    3.9610   -1.7069 C   0  0  0  0  0  0  0  0  0  0  0  0
   -0.4692    2.9682   -0.9976 C   0  0  0  0  0  0  0  0  0  0  0  0
   -1.4717    2.2436   -1.9067 C   0  0  0  0  0  0  0  0  0  0  0  0
   -0.7949    1.2588   -2.8623 C   0  0  0  0  0  0  0  0  0  0  0  0
   -1.7538    0.2529   -3.5035 C   0  0  0  0  0  0  0  0  0  0  0  0
   -2.4053   -0.6164   -2.5307 N   0  0  0  0  0  0  0  0  0  0  0  0
   -1.6903   -1.4251   -1.6539 C   0  0  0  0  0  0  0  0  0  0  0  0
   -0.4382   -1.9837   -1.9595 C   0  0  0  0  0  0  0  0  0  0  0  0
    0.2573   -2.8122   -1.0498 C   0  0  0  0  0  0  0  0  0  0  0  0
   -0.2951   -3.1335    0.1891 C   0  0  0  0  0  0  0  0  0  0  0  0
   -1.5391   -2.6101    0.4699 C   0  0  0  0  0  0  0  0  0  0  0  0
   -2.2162   -1.7929   -0.4207 C   0  0  0  0  0  0  0  0  0  0  0  0
   -3.4787   -1.4145    0.2204 C   0  0  0  0  0  0  0  0  0  0  0  0
   -4.3217   -0.7004   -0.2919 O   0  0  0  0  0  0  0  0  0  0  0  0
   -3.4911   -1.9997    1.4578 N   0  0  0  0  0  0  0  0  0  0  0  0
   -4.6163   -1.9938    2.3800 C   0  0  0  0  0  0  0  0  0  0  0  0
   -5.2280   -0.6163    2.6205 C   0  0  0  0  0  0  0  0  0  0  0  0
   -6.3582   -0.7399    3.6314 C   0  0  0  0  0  0  0  0  0  0  0  0
   -7.3969   -1.7374    3.1752 C   0  0  0  0  0  0  0  0  0  0  0  0
   -8.5757   -1.6562    3.5097 O   0  0  0  0  0  0  0  0  0  0  0  0
   -6.9505   -2.7795    2.4010 N   0  0  0  0  0  0  0  0  0  0  0  0
   -5.6889   -2.9644    1.8787 C   0  0  0  0  0  0  0  0  0  0  0  0
   -5.4650   -3.8950    1.1081 O   0  0  0  0  0  0  0  0  0  0  0  0
   -2.3698   -2.7561    1.6619 C   0  0  0  0  0  0  0  0  0  0  0  0
   -2.0649   -3.4208    2.6337 O   0  0  0  0  0  0  0  0  0  0  0  0
    2.5318    1.9125   -0.6770 N   0  0  0  0  0  0  0  0  0  0  0  0
    3.8244   -0.7389    2.9248 C   0  0  0  0  0  0  0  0  0  0  0  0
    4.4483   -1.7547    3.6553 C   0  0  0  0  0  0  0  0  0  0  0  0
    3.8488   -4.9666    4.5136 H   0  0  0  0  0  0  0  0  0  0  0  0
    5.1622   -6.1787    4.5308 H   0  0  0  0  0  0  0  0  0  0  0  0
    4.4640   -5.6533    2.9698 H   0  0  0  0  0  0  0  0  0  0  0  0
    5.7165   -3.5446    1.0461 H   0  0  0  0  0  0  0  0  0  0  0  0
    4.6079   -1.7757   -0.2167 H   0  0  0  0  0  0  0  0  0  0  0  0
    2.8676    1.0923    1.4297 H   0  0  0  0  0  0  0  0  0  0  0  0
    3.7697   -0.2580   -3.5147 H   0  0  0  0  0  0  0  0  0  0  0  0
    2.7180    1.9458   -4.0484 H   0  0  0  0  0  0  0  0  0  0  0  0
    3.5250    4.4949   -3.0611 H   0  0  0  0  0  0  0  0  0  0  0  0
    2.5729    6.7132   -3.4633 H   0  0  0  0  0  0  0  0  0  0  0  0
   -1.1155    5.4735   -1.6338 H   0  0  0  0  0  0  0  0  0  0  0  0
    0.1050    2.2350   -0.4247 H   0  0  0  0  0  0  0  0  0  0  0  0
   -1.0354    3.5171   -0.2320 H   0  0  0  0  0  0  0  0  0  0  0  0
   -2.0668    2.9633   -2.4810 H   0  0  0  0  0  0  0  0  0  0  0  0
   -2.1715    1.7088   -1.2539 H   0  0  0  0  0  0  0  0  0  0  0  0
   -0.3045    1.8222   -3.6641 H   0  0  0  0  0  0  0  0  0  0  0  0
   -0.0064    0.7201   -2.3295 H   0  0  0  0  0  0  0  0  0  0  0  0
   -1.2174   -0.3509   -4.2445 H   0  0  0  0  0  0  0  0  0  0  0  0
   -2.5307    0.7929   -4.0564 H   0  0  0  0  0  0  0  0  0  0  0  0
   -3.2399   -0.2032   -2.1013 H   0  0  0  0  0  0  0  0  0  0  0  0
    0.0325   -1.7842   -2.9188 H   0  0  0  0  0  0  0  0  0  0  0  0
    1.2351   -3.2032   -1.3242 H   0  0  0  0  0  0  0  0  0  0  0  0
    0.2250   -3.7677    0.8973 H   0  0  0  0  0  0  0  0  0  0  0  0
   -4.2649   -2.3993    3.3371 H   0  0  0  0  0  0  0  0  0  0  0  0
   -5.6322   -0.1924    1.6951 H   0  0  0  0  0  0  0  0  0  0  0  0
   -4.4664    0.0782    2.9917 H   0  0  0  0  0  0  0  0  0  0  0  0
   -5.9791   -1.0580    4.6076 H   0  0  0  0  0  0  0  0  0  0  0  0
   -6.8441    0.2344    3.7536 H   0  0  0  0  0  0  0  0  0  0  0  0
   -7.6585   -3.4262    2.0816 H   0  0  0  0  0  0  0  0  0  0  0  0
    3.3088    0.0487    3.4714 H   0  0  0  0  0  0  0  0  0  0  0  0
    4.4146   -1.7338    4.7423 H   0  0  0  0  0  0  0  0  0  0  0  0
  1  2  1  0
  2  3  2  0
  2  4  2  0
  2  5  1  0
  5  6  1  0
  6  7  2  0
  7  8  1  0
  8  9  1  0
  9 10  1  0
 10 11  2  0
 11 12  1  0
 12 13  2  0
 13 14  1  0
 14 15  1  0
 15 16  1  0
 16 17  2  0
 17 18  1  0
 18 19  1  0
 19 20  1  0
 19 21  1  0
 19 22  1  0
 18 23  2  0
 23 24  1  0
 24 25  1  0
 25 26  1  0
 26 27  1  0
 27 28  1  0
 28 29  1  0
 29 30  1  0
 30 31  2  0
 31 32  1  0
 32 33  2  0
 33 34  1  0
 34 35  2  0
 35 36  1  0
 36 37  2  0
 36 38  1  0
 38 39  1  0
 39 40  1  0
 40 41  1  0
 41 42  1  0
 42 43  2  0
 42 44  1  0
 44 45  1  0
 45 46  2  0
 38 47  1  0
 47 48  2  0
 14 49  2  0
  8 50  2  0
 50 51  1  0
 51  5  2  0
 49 10  1  0
 24 15  2  0
 35 30  1  0
 45 39  1  0
 47 34  1  0
  1 52  1  0
  1 53  1  0
  1 54  1  0
  6 55  1  0
  7 56  1  0
  9 57  1  0
 12 58  1  0
 13 59  1  0
 16 60  1  0
 17 61  1  0
 23 62  1  0
 25 63  1  0
 25 64  1  0
 26 65  1  0
 26 66  1  0
 27 67  1  0
 27 68  1  0
 28 69  1  0
 28 70  1  0
 29 71  1  0
 31 72  1  0
 32 73  1  0
 33 74  1  0
 39 75  1  0
 40 76  1  0
 40 77  1  0
 41 78  1  0
 41 79  1  0
 44 80  1  0
 50 81  1  0
 51 82  1  0
M  END
$$$$
