
     RDKit          3D

 98103  0  0  0  0  0  0  0  0999 V2000
   13.1498   -0.9254   -2.5494 C   0  0  0  0  0  0  0  0  0  0  0  0
   12.3491    0.6435   -2.7445 S   0  0  0  0  0  0  0  0  0  0  0  0
   11.5685    0.6001   -3.9669 O   0  0  0  0  0  0  0  0  0  0  0  0
   13.3352    1.6860   -2.5282 O   0  0  0  0  0  0  0  0  0  0  0  0
   11.2089    0.6975   -1.3845 C   0  0  0  0  0  0  0  0  0  0  0  0
    9.9020    0.2438   -1.5591 C   0  0  0  0  0  0  0  0  0  0  0  0
    8.9942    0.3154   -0.4956 C   0  0  0  0  0  0  0  0  0  0  0  0
    9.3645    0.8532    0.7440 C   0  0  0  0  0  0  0  0  0  0  0  0
    8.4917    0.9649    1.8340 N   0  0  0  0  0  0  0  0  0  0  0  0
    7.1072    0.8504    1.9574 C   0  0  0  0  0  0  0  0  0  0  0  0
    6.6001    1.2689    3.1255 N   0  0  0  0  0  0  0  0  0  0  0  0
    5.2613    1.2494    3.2515 C   0  0  0  0  0  0  0  0  0  0  0  0
    4.4077    0.8251    2.2642 C   0  0  0  0  0  0  0  0  0  0  0  0
    5.0022    0.3707    1.1089 C   0  0  0  0  0  0  0  0  0  0  0  0
    4.2637   -0.1017   -0.0840 C   0  0  0  0  0  0  0  0  0  0  0  0
    4.6649    0.4204   -1.3376 C   0  0  0  0  0  0  0  0  0  0  0  0
    4.0698    0.0295   -2.5395 C   0  0  0  0  0  0  0  0  0  0  0  0
    3.0501   -0.9202   -2.5385 C   0  0  0  0  0  0  0  0  0  0  0  0
    2.3875   -1.3539   -3.8244 C   0  0  0  0  0  0  0  0  0  0  0  0
    1.2157   -0.6970   -4.0424 F   0  0  0  0  0  0  0  0  0  0  0  0
    2.0757   -2.6792   -3.8336 F   0  0  0  0  0  0  0  0  0  0  0  0
    3.1500   -1.1393   -4.9311 F   0  0  0  0  0  0  0  0  0  0  0  0
    2.6308   -1.4465   -1.3075 C   0  0  0  0  0  0  0  0  0  0  0  0
    3.2149   -1.0524   -0.0782 C   0  0  0  0  0  0  0  0  0  0  0  0
    2.6531   -1.6972    1.1744 C   0  0  0  0  0  0  0  0  0  0  0  0
    1.2758   -1.1154    1.5168 C   0  0  0  0  0  0  0  0  0  0  0  0
    0.7368   -1.6561    2.7237 O   0  0  0  0  0  0  0  0  0  0  0  0
    0.0740   -2.9183    2.5641 C   0  0  0  0  0  0  0  0  0  0  0  0
   -1.3190   -2.7946    1.9278 C   0  0  0  0  0  0  0  0  0  0  0  0
   -2.3692   -2.5210    2.8532 O   0  0  0  0  0  0  0  0  0  0  0  0
   -2.3289   -1.2711    3.5437 C   0  0  0  0  0  0  0  0  0  0  0  0
   -2.1623   -0.0186    2.6766 C   0  0  0  0  0  0  0  0  0  0  0  0
   -3.0588   -0.0335    1.5626 O   0  0  0  0  0  0  0  0  0  0  0  0
   -2.8436    1.0960    0.7038 C   0  0  0  0  0  0  0  0  0  0  0  0
   -3.4986    0.8253   -0.6542 C   0  0  0  0  0  0  0  0  0  0  0  0
   -4.9519    0.7124   -0.5390 N   0  0  0  0  0  0  0  0  0  0  0  0
   -5.7991    1.8119   -0.5538 C   0  0  0  0  0  0  0  0  0  0  0  0
   -5.4058    3.1140   -0.9034 C   0  0  0  0  0  0  0  0  0  0  0  0
   -6.3253    4.1812   -1.0056 C   0  0  0  0  0  0  0  0  0  0  0  0
   -7.6826    3.9704   -0.7933 C   0  0  0  0  0  0  0  0  0  0  0  0
   -8.0687    2.6852   -0.4796 C   0  0  0  0  0  0  0  0  0  0  0  0
   -7.1633    1.6264   -0.3592 C   0  0  0  0  0  0  0  0  0  0  0  0
   -7.9077    0.3708   -0.0362 C   0  0  0  0  0  0  0  0  0  0  0  0
   -9.2989    0.8059   -0.0406 N   0  0  0  0  0  0  0  0  0  0  0  0
  -10.4413   -0.0693    0.2101 C   0  0  0  0  0  0  0  0  0  0  0  0
  -11.2788   -0.3152   -1.0486 C   0  0  0  0  0  0  0  0  0  0  0  0
  -10.5398   -1.2210   -2.0226 C   0  0  0  0  0  0  0  0  0  0  0  0
  -10.1318   -2.5126   -1.3588 C   0  0  0  0  0  0  0  0  0  0  0  0
   -9.8628   -3.5247   -1.9993 O   0  0  0  0  0  0  0  0  0  0  0  0
  -10.0053   -2.4960    0.0073 N   0  0  0  0  0  0  0  0  0  0  0  0
  -10.0449   -1.4078    0.8441 C   0  0  0  0  0  0  0  0  0  0  0  0
   -9.6505   -1.5061    2.0051 O   0  0  0  0  0  0  0  0  0  0  0  0
   -9.4230    2.1652   -0.2653 C   0  0  0  0  0  0  0  0  0  0  0  0
  -10.4431    2.8255   -0.3077 O   0  0  0  0  0  0  0  0  0  0  0  0
    6.3455    0.3925    0.9571 N   0  0  0  0  0  0  0  0  0  0  0  0
   10.6905    1.2992    0.8928 C   0  0  0  0  0  0  0  0  0  0  0  0
   11.6079    1.2352   -0.1633 C   0  0  0  0  0  0  0  0  0  0  0  0
   13.6869   -0.9345   -1.5984 H   0  0  0  0  0  0  0  0  0  0  0  0
   13.8510   -1.0500   -3.3780 H   0  0  0  0  0  0  0  0  0  0  0  0
   12.4007   -1.7187   -2.5817 H   0  0  0  0  0  0  0  0  0  0  0  0
    9.5714   -0.1604   -2.5130 H   0  0  0  0  0  0  0  0  0  0  0  0
    7.9893   -0.0614   -0.6664 H   0  0  0  0  0  0  0  0  0  0  0  0
    8.8484    1.4125    2.6668 H   0  0  0  0  0  0  0  0  0  0  0  0
    4.8803    1.6099    4.2022 H   0  0  0  0  0  0  0  0  0  0  0  0
    3.3378    0.8653    2.4015 H   0  0  0  0  0  0  0  0  0  0  0  0
    5.4763    1.1505   -1.3805 H   0  0  0  0  0  0  0  0  0  0  0  0
    4.4216    0.4655   -3.4738 H   0  0  0  0  0  0  0  0  0  0  0  0
    1.8343   -2.1925   -1.3044 H   0  0  0  0  0  0  0  0  0  0  0  0
    3.3278   -1.6015    2.0294 H   0  0  0  0  0  0  0  0  0  0  0  0
    2.5852   -2.7818    1.0138 H   0  0  0  0  0  0  0  0  0  0  0  0
    1.3674   -0.0353    1.6738 H   0  0  0  0  0  0  0  0  0  0  0  0
    0.5755   -1.2389    0.6858 H   0  0  0  0  0  0  0  0  0  0  0  0
   -0.0154   -3.3563    3.5643 H   0  0  0  0  0  0  0  0  0  0  0  0
    0.7062   -3.5818    1.9648 H   0  0  0  0  0  0  0  0  0  0  0  0
   -1.3530   -2.0680    1.1131 H   0  0  0  0  0  0  0  0  0  0  0  0
   -1.5679   -3.7673    1.4890 H   0  0  0  0  0  0  0  0  0  0  0  0
   -1.5494   -1.3083    4.3143 H   0  0  0  0  0  0  0  0  0  0  0  0
   -3.2894   -1.2001    4.0690 H   0  0  0  0  0  0  0  0  0  0  0  0
   -2.3510    0.8731    3.2867 H   0  0  0  0  0  0  0  0  0  0  0  0
   -1.1384    0.0377    2.3005 H   0  0  0  0  0  0  0  0  0  0  0  0
   -3.2612    1.9890    1.1830 H   0  0  0  0  0  0  0  0  0  0  0  0
   -1.7685    1.2389    0.5438 H   0  0  0  0  0  0  0  0  0  0  0  0
   -3.1357   -0.1383   -1.0311 H   0  0  0  0  0  0  0  0  0  0  0  0
   -3.1997    1.5739   -1.3936 H   0  0  0  0  0  0  0  0  0  0  0  0
   -5.1952    0.0232    0.1752 H   0  0  0  0  0  0  0  0  0  0  0  0
   -4.3644    3.3440   -1.1067 H   0  0  0  0  0  0  0  0  0  0  0  0
   -5.9678    5.1734   -1.2735 H   0  0  0  0  0  0  0  0  0  0  0  0
   -8.4084    4.7690   -0.8875 H   0  0  0  0  0  0  0  0  0  0  0  0
   -7.7622   -0.3963   -0.8013 H   0  0  0  0  0  0  0  0  0  0  0  0
   -7.6416    0.0062    0.9598 H   0  0  0  0  0  0  0  0  0  0  0  0
  -11.0876    0.4483    0.9323 H   0  0  0  0  0  0  0  0  0  0  0  0
  -11.5372    0.6255   -1.5456 H   0  0  0  0  0  0  0  0  0  0  0  0
  -12.2232   -0.7982   -0.7618 H   0  0  0  0  0  0  0  0  0  0  0  0
   -9.6426   -0.7349   -2.4212 H   0  0  0  0  0  0  0  0  0  0  0  0
  -11.2002   -1.4615   -2.8642 H   0  0  0  0  0  0  0  0  0  0  0  0
   -9.6808   -3.3580    0.4252 H   0  0  0  0  0  0  0  0  0  0  0  0
   11.0197    1.7257    1.8378 H   0  0  0  0  0  0  0  0  0  0  0  0
   12.6169    1.6173   -0.0226 H   0  0  0  0  0  0  0  0  0  0  0  0
  1  2  1  0
  2  3  2  0
  2  4  2  0
  2  5  1  0
  5  6  1  0
  6  7  2  0
  7  8  1  0
  8  9  1  0
  9 10  1  0
 10 11  2  0
 11 12  1  0
 12 13  2  0
 13 14  1  0
 14 15  1  0
 15 16  1  0
 16 17  2  0
 17 18  1  0
 18 19  1  0
 19 20  1  0
 19 21  1  0
 19 22  1  0
 18 23  2  0
 23 24  1  0
 24 25  1  0
 25 26  1  0
 26 27  1  0
 27 28  1  0
 28 29  1  0
 29 30  1  0
 30 31  1  0
 31 32  1  0
 32 33  1  0
 33 34  1  0
 34 35  1  0
 35 36  1  0
 36 37  1  0
 37 38  2  0
 38 39  1  0
 39 40  2  0
 40 41  1  0
 41 42  2  0
 42 43  1  0
 43 44  1  0
 44 45  1  0
 45 46  1  0
 46 47  1  0
 47 48  1  0
 48 49  2  0
 48 50  1  0
 50 51  1  0
 51 52  2  0
 44 53  1  0
 53 54  2  0
 14 55  2  0
  8 56  2  0
 56 57  1  0
 57  5  2  0
 55 10  1  0
 24 15  2  0
 42 37  1  0
 51 45  1  0
 53 41  1  0
  1 58  1  0
  1 59  1  0
  1 60  1  0
  6 61  1  0
  7 62  1  0
  9 63  1  0
 12 64  1  0
 13 65  1  0
 16 66  1  0
 17 67  1  0
 23 68  1  0
 25 69  1  0
 25 70  1  0
 26 71  1  0
 26 72  1  0
 28 73  1  0
 28 74  1  0
 29 75  1  0
 29 76  1  0
 31 77  1  0
 31 78  1  0
 32 79  1  0
 32 80  1  0
 34 81  1  0
 34 82  1  0
 35 83  1  0
 35 84  1  0
 36 85  1  0
 38 86  1  0
 39 87  1  0
 40 88  1  0
 43 89  1  0
 43 90  1  0
 45 91  1  0
 46 92  1  0
 46 93  1  0
 47 94  1  0
 47 95  1  0
 50 96  1  0
 56 97  1  0
 57 98  1  0
M  END
$$$$
