
     RDKit          3D

 83 88  0  0  0  0  0  0  0  0999 V2000
   10.0020    2.1112    0.2920 C   0  0  0  0  0  0  0  0  0  0  0  0
    8.8033    3.2713   -0.3182 S   0  0  0  0  0  0  0  0  0  0  0  0
    9.1436    3.5992   -1.6903 O   0  0  0  0  0  0  0  0  0  0  0  0
    8.6475    4.3136    0.6841 O   0  0  0  0  0  0  0  0  0  0  0  0
    7.3026    2.3225   -0.3587 C   0  0  0  0  0  0  0  0  0  0  0  0
    7.1166    1.3822   -1.3727 C   0  0  0  0  0  0  0  0  0  0  0  0
    5.9401    0.6250   -1.4020 C   0  0  0  0  0  0  0  0  0  0  0  0
    4.9402    0.7962   -0.4360 C   0  0  0  0  0  0  0  0  0  0  0  0
    3.7474    0.0682   -0.4254 N   0  0  0  0  0  0  0  0  0  0  0  0
    3.3845   -1.1585   -0.9798 C   0  0  0  0  0  0  0  0  0  0  0  0
    4.1858   -1.8623   -1.7887 N   0  0  0  0  0  0  0  0  0  0  0  0
    3.7686   -3.0902   -2.1473 C   0  0  0  0  0  0  0  0  0  0  0  0
    2.5947   -3.6517   -1.7111 C   0  0  0  0  0  0  0  0  0  0  0  0
    1.8285   -2.8620   -0.8837 C   0  0  0  0  0  0  0  0  0  0  0  0
    0.5650   -3.3162   -0.2740 C   0  0  0  0  0  0  0  0  0  0  0  0
   -0.4465   -3.8389   -1.1065 C   0  0  0  0  0  0  0  0  0  0  0  0
   -1.6697   -4.2800   -0.5907 C   0  0  0  0  0  0  0  0  0  0  0  0
   -1.9260   -4.2053    0.7812 C   0  0  0  0  0  0  0  0  0  0  0  0
   -3.2297   -4.7136    1.3496 C   0  0  0  0  0  0  0  0  0  0  0  0
   -3.1729   -6.0388    1.6596 F   0  0  0  0  0  0  0  0  0  0  0  0
   -4.2785   -4.5722    0.4906 F   0  0  0  0  0  0  0  0  0  0  0  0
   -3.5956   -4.0765    2.4934 F   0  0  0  0  0  0  0  0  0  0  0  0
   -0.9282   -3.6926    1.6250 C   0  0  0  0  0  0  0  0  0  0  0  0
    0.3117   -3.2401    1.1210 C   0  0  0  0  0  0  0  0  0  0  0  0
    1.3311   -2.7277    2.1309 C   0  0  0  0  0  0  0  0  0  0  0  0
    0.9949   -1.3672    2.7650 C   0  0  0  0  0  0  0  0  0  0  0  0
    1.3288   -0.2625    1.9175 O   0  0  0  0  0  0  0  0  0  0  0  0
    0.1993    0.2598    1.2057 C   0  0  0  0  0  0  0  0  0  0  0  0
   -0.5056    1.3418    2.0320 C   0  0  0  0  0  0  0  0  0  0  0  0
   -1.8112    1.7021    1.4892 N   0  0  0  0  0  0  0  0  0  0  0  0
   -1.9618    2.3845    0.2899 C   0  0  0  0  0  0  0  0  0  0  0  0
   -1.0086    3.2771   -0.2255 C   0  0  0  0  0  0  0  0  0  0  0  0
   -1.2381    4.0222   -1.4072 C   0  0  0  0  0  0  0  0  0  0  0  0
   -2.4408    3.9099   -2.1025 C   0  0  0  0  0  0  0  0  0  0  0  0
   -3.3800    3.0451   -1.5817 C   0  0  0  0  0  0  0  0  0  0  0  0
   -3.1495    2.3125   -0.4297 C   0  0  0  0  0  0  0  0  0  0  0  0
   -4.3485    1.5072   -0.1890 C   0  0  0  0  0  0  0  0  0  0  0  0
   -4.4816    0.7336    0.7425 O   0  0  0  0  0  0  0  0  0  0  0  0
   -5.2371    1.7994   -1.1840 N   0  0  0  0  0  0  0  0  0  0  0  0
   -6.5939    1.2796   -1.2800 C   0  0  0  0  0  0  0  0  0  0  0  0
   -6.7013   -0.2240   -1.5243 C   0  0  0  0  0  0  0  0  0  0  0  0
   -6.8205   -1.0546   -0.2588 C   0  0  0  0  0  0  0  0  0  0  0  0
   -7.8487   -0.5010    0.6948 C   0  0  0  0  0  0  0  0  0  0  0  0
   -8.3971   -1.1990    1.5454 O   0  0  0  0  0  0  0  0  0  0  0  0
   -8.1107    0.8409    0.6197 N   0  0  0  0  0  0  0  0  0  0  0  0
   -7.3921    1.7771   -0.0748 C   0  0  0  0  0  0  0  0  0  0  0  0
   -7.3882    2.9536    0.2879 O   0  0  0  0  0  0  0  0  0  0  0  0
   -4.7224    2.7200   -2.0554 C   0  0  0  0  0  0  0  0  0  0  0  0
   -5.2264    3.1907   -3.0577 O   0  0  0  0  0  0  0  0  0  0  0  0
    2.2015   -1.6140   -0.5540 N   0  0  0  0  0  0  0  0  0  0  0  0
    5.1394    1.7772    0.5517 C   0  0  0  0  0  0  0  0  0  0  0  0
    6.3139    2.5363    0.5987 C   0  0  0  0  0  0  0  0  0  0  0  0
   10.9639    2.6242    0.3643 H   0  0  0  0  0  0  0  0  0  0  0  0
   10.0794    1.2760   -0.4107 H   0  0  0  0  0  0  0  0  0  0  0  0
    9.6900    1.7629    1.2800 H   0  0  0  0  0  0  0  0  0  0  0  0
    7.8682    1.2347   -2.1466 H   0  0  0  0  0  0  0  0  0  0  0  0
    5.8082   -0.0902   -2.2094 H   0  0  0  0  0  0  0  0  0  0  0  0
    3.0980    0.2531    0.3325 H   0  0  0  0  0  0  0  0  0  0  0  0
    4.4416   -3.6331   -2.8036 H   0  0  0  0  0  0  0  0  0  0  0  0
    2.3120   -4.6589   -1.9868 H   0  0  0  0  0  0  0  0  0  0  0  0
   -0.2891   -3.8959   -2.1833 H   0  0  0  0  0  0  0  0  0  0  0  0
   -2.4210   -4.6823   -1.2704 H   0  0  0  0  0  0  0  0  0  0  0  0
   -1.1168   -3.6540    2.6991 H   0  0  0  0  0  0  0  0  0  0  0  0
    1.3791   -3.4774    2.9336 H   0  0  0  0  0  0  0  0  0  0  0  0
    2.3381   -2.7026    1.7043 H   0  0  0  0  0  0  0  0  0  0  0  0
   -0.0452   -1.3129    3.1067 H   0  0  0  0  0  0  0  0  0  0  0  0
    1.6264   -1.2527    3.6537 H   0  0  0  0  0  0  0  0  0  0  0  0
    0.5770    0.7016    0.2768 H   0  0  0  0  0  0  0  0  0  0  0  0
   -0.4914   -0.5394    0.9172 H   0  0  0  0  0  0  0  0  0  0  0  0
   -0.6621    0.9744    3.0525 H   0  0  0  0  0  0  0  0  0  0  0  0
    0.1442    2.2163    2.1486 H   0  0  0  0  0  0  0  0  0  0  0  0
   -2.5332    0.9879    1.6413 H   0  0  0  0  0  0  0  0  0  0  0  0
   -0.0656    3.4379    0.2898 H   0  0  0  0  0  0  0  0  0  0  0  0
   -0.4694    4.7054   -1.7645 H   0  0  0  0  0  0  0  0  0  0  0  0
   -2.6378    4.4848   -3.0019 H   0  0  0  0  0  0  0  0  0  0  0  0
   -7.0599    1.7652   -2.1475 H   0  0  0  0  0  0  0  0  0  0  0  0
   -7.6122   -0.4006   -2.1107 H   0  0  0  0  0  0  0  0  0  0  0  0
   -5.8666   -0.5840   -2.1370 H   0  0  0  0  0  0  0  0  0  0  0  0
   -7.1281   -2.0703   -0.5315 H   0  0  0  0  0  0  0  0  0  0  0  0
   -5.8675   -1.1388    0.2660 H   0  0  0  0  0  0  0  0  0  0  0  0
   -8.6528    1.1990    1.3942 H   0  0  0  0  0  0  0  0  0  0  0  0
    4.3748    1.9530    1.3049 H   0  0  0  0  0  0  0  0  0  0  0  0
    6.4382    3.2819    1.3808 H   0  0  0  0  0  0  0  0  0  0  0  0
  1  2  1  0
  2  3  2  0
  2  4  2  0
  2  5  1  0
  5  6  1  0
  6  7  2  0
  7  8  1  0
  8  9  1  0
  9 10  1  0
 10 11  2  0
 11 12  1  0
 12 13  2  0
 13 14  1  0
 14 15  1  0
 15 16  1  0
 16 17  2  0
 17 18  1  0
 18 19  1  0
 19 20  1  0
 19 21  1  0
 19 22  1  0
 18 23  2  0
 23 24  1  0
 24 25  1  0
 25 26  1  0
 26 27  1  0
 27 28  1  0
 28 29  1  0
 29 30  1  0
 30 31  1  0
 31 32  2  0
 32 33  1  0
 33 34  2  0
 34 35  1  0
 35 36  2  0
 36 37  1  0
 37 38  2  0
 37 39  1  0
 39 40  1  0
 40 41  1  0
 41 42  1  0
 42 43  1  0
 43 44  2  0
 43 45  1  0
 45 46  1  0
 46 47  2  0
 39 48  1  0
 48 49  2  0
 14 50  2  0
  8 51  2  0
 51 52  1  0
 52  5  2  0
 50 10  1  0
 24 15  2  0
 36 31  1  0
 46 40  1  0
 48 35  1  0
  1 53  1  0
  1 54  1  0
  1 55  1  0
  6 56  1  0
  7 57  1  0
  9 58  1  0
 12 59  1  0
 13 60  1  0
 16 61  1  0
 17 62  1  0
 23 63  1  0
 25 64  1  0
 25 65  1  0
 26 66  1  0
 26 67  1  0
 28 68  1  0
 28 69  1  0
 29 70  1  0
 29 71  1  0
 30 72  1  0
 32 73  1  0
 33 74  1  0
 34 75  1  0
 40 76  1  0
 41 77  1  0
 41 78  1  0
 42 79  1  0
 42 80  1  0
 45 81  1  0
 51 82  1  0
 52 83  1  0
M  END
$$$$
