
     RDKit          3D

 88 94  0  0  0  0  0  0  0  0999 V2000
    9.4978    2.3229    2.6860 C   0  0  0  0  0  0  0  0  0  0  0  0
    9.6444    3.2213    1.1583 S   0  0  0  0  0  0  0  0  0  0  0  0
   10.1611    2.3199    0.1429 O   0  0  0  0  0  0  0  0  0  0  0  0
   10.3129    4.4802    1.4478 O   0  0  0  0  0  0  0  0  0  0  0  0
    7.9556    3.5757    0.7387 C   0  0  0  0  0  0  0  0  0  0  0  0
    7.1637    2.5648    0.1932 C   0  0  0  0  0  0  0  0  0  0  0  0
    5.8150    2.8175   -0.0931 C   0  0  0  0  0  0  0  0  0  0  0  0
    5.2453    4.0730    0.1504 C   0  0  0  0  0  0  0  0  0  0  0  0
    3.8975    4.3788   -0.0885 N   0  0  0  0  0  0  0  0  0  0  0  0
    2.7617    3.5770   -0.2108 C   0  0  0  0  0  0  0  0  0  0  0  0
    1.6025    4.2231   -0.0140 N   0  0  0  0  0  0  0  0  0  0  0  0
    0.4823    3.4809    0.0064 C   0  0  0  0  0  0  0  0  0  0  0  0
    0.4720    2.1234   -0.1829 C   0  0  0  0  0  0  0  0  0  0  0  0
    1.6911    1.5439   -0.4457 C   0  0  0  0  0  0  0  0  0  0  0  0
    1.8529    0.0961   -0.6724 C   0  0  0  0  0  0  0  0  0  0  0  0
    2.6292   -0.6280    0.2584 C   0  0  0  0  0  0  0  0  0  0  0  0
    2.8400   -2.0046    0.1383 C   0  0  0  0  0  0  0  0  0  0  0  0
    2.3012   -2.7048   -0.9431 C   0  0  0  0  0  0  0  0  0  0  0  0
    2.4954   -4.1965   -1.0601 C   0  0  0  0  0  0  0  0  0  0  0  0
    1.6179   -4.8853   -0.2759 F   0  0  0  0  0  0  0  0  0  0  0  0
    3.7372   -4.6016   -0.6753 F   0  0  0  0  0  0  0  0  0  0  0  0
    2.3239   -4.6742   -2.3219 F   0  0  0  0  0  0  0  0  0  0  0  0
    1.5452   -1.9985   -1.8902 C   0  0  0  0  0  0  0  0  0  0  0  0
    1.3012   -0.6095   -1.7693 C   0  0  0  0  0  0  0  0  0  0  0  0
    0.4672    0.0432   -2.8622 C   0  0  0  0  0  0  0  0  0  0  0  0
   -1.0521   -0.0497   -2.6672 C   0  0  0  0  0  0  0  0  0  0  0  0
   -1.5595   -1.4035   -2.6542 N   0  0  0  0  0  0  0  0  0  0  0  0
   -1.8335   -2.1758   -1.5666 C   0  0  0  0  0  0  0  0  0  0  0  0
   -2.2557   -3.3694   -2.1080 C   0  0  0  0  0  0  0  0  0  0  0  0
   -2.6646   -4.6215   -1.4231 C   0  0  0  0  0  0  0  0  0  0  0  0
   -4.1778   -4.7563   -1.2192 C   0  0  0  0  0  0  0  0  0  0  0  0
   -4.7801   -3.6483   -0.4634 N   0  0  0  0  0  0  0  0  0  0  0  0
   -4.3764   -3.3623    0.8394 C   0  0  0  0  0  0  0  0  0  0  0  0
   -4.0364   -4.3471    1.7776 C   0  0  0  0  0  0  0  0  0  0  0  0
   -3.6711   -4.0201    3.1049 C   0  0  0  0  0  0  0  0  0  0  0  0
   -3.6575   -2.6960    3.5447 C   0  0  0  0  0  0  0  0  0  0  0  0
   -4.0189   -1.7371    2.6235 C   0  0  0  0  0  0  0  0  0  0  0  0
   -4.3773   -2.0595    1.3250 C   0  0  0  0  0  0  0  0  0  0  0  0
   -4.6896   -0.7996    0.6460 C   0  0  0  0  0  0  0  0  0  0  0  0
   -5.0276   -0.7002   -0.5198 O   0  0  0  0  0  0  0  0  0  0  0  0
   -4.4962    0.2059    1.5484 N   0  0  0  0  0  0  0  0  0  0  0  0
   -4.8039    1.6111    1.3136 C   0  0  0  0  0  0  0  0  0  0  0  0
   -6.2954    1.9474    1.3623 C   0  0  0  0  0  0  0  0  0  0  0  0
   -7.0032    1.6753    0.0487 C   0  0  0  0  0  0  0  0  0  0  0  0
   -6.2829    2.3018   -1.1204 C   0  0  0  0  0  0  0  0  0  0  0  0
   -6.8464    2.5348   -2.1859 O   0  0  0  0  0  0  0  0  0  0  0  0
   -4.9435    2.5555   -0.9696 N   0  0  0  0  0  0  0  0  0  0  0  0
   -4.1200    2.1046    0.0360 C   0  0  0  0  0  0  0  0  0  0  0  0
   -2.8984    2.0531   -0.1239 O   0  0  0  0  0  0  0  0  0  0  0  0
   -4.1232   -0.2876    2.7660 C   0  0  0  0  0  0  0  0  0  0  0  0
   -3.9303    0.3159    3.8034 O   0  0  0  0  0  0  0  0  0  0  0  0
   -2.2270   -3.2746   -3.4757 N   0  0  0  0  0  0  0  0  0  0  0  0
   -1.7978   -2.0618   -3.8001 N   0  0  0  0  0  0  0  0  0  0  0  0
    2.8370    2.2587   -0.4388 N   0  0  0  0  0  0  0  0  0  0  0  0
    6.0836    5.0903    0.6395 C   0  0  0  0  0  0  0  0  0  0  0  0
    7.4275    4.8494    0.9439 C   0  0  0  0  0  0  0  0  0  0  0  0
   10.5050    2.0480    3.0173 H   0  0  0  0  0  0  0  0  0  0  0  0
    9.0180    2.9668    3.4317 H   0  0  0  0  0  0  0  0  0  0  0  0
    8.9021    1.4222    2.5045 H   0  0  0  0  0  0  0  0  0  0  0  0
    7.5763    1.5784   -0.0115 H   0  0  0  0  0  0  0  0  0  0  0  0
    5.2241    2.0105   -0.5175 H   0  0  0  0  0  0  0  0  0  0  0  0
    3.5866    5.2948    0.2031 H   0  0  0  0  0  0  0  0  0  0  0  0
   -0.4387    4.0208    0.1980 H   0  0  0  0  0  0  0  0  0  0  0  0
   -0.4422    1.5541   -0.1083 H   0  0  0  0  0  0  0  0  0  0  0  0
    3.0861   -0.1025    1.0982 H   0  0  0  0  0  0  0  0  0  0  0  0
    3.4384   -2.5214    0.8891 H   0  0  0  0  0  0  0  0  0  0  0  0
    1.1355   -2.5430   -2.7461 H   0  0  0  0  0  0  0  0  0  0  0  0
    0.7512    1.0969   -2.9613 H   0  0  0  0  0  0  0  0  0  0  0  0
    0.7395   -0.4160   -3.8222 H   0  0  0  0  0  0  0  0  0  0  0  0
   -1.3649    0.4152   -1.7266 H   0  0  0  0  0  0  0  0  0  0  0  0
   -1.5697    0.4791   -3.4790 H   0  0  0  0  0  0  0  0  0  0  0  0
   -1.6900   -1.8371   -0.5514 H   0  0  0  0  0  0  0  0  0  0  0  0
   -2.3175   -5.4750   -2.0177 H   0  0  0  0  0  0  0  0  0  0  0  0
   -2.1431   -4.6956   -0.4594 H   0  0  0  0  0  0  0  0  0  0  0  0
   -4.6741   -4.7951   -2.1947 H   0  0  0  0  0  0  0  0  0  0  0  0
   -4.4037   -5.7128   -0.7329 H   0  0  0  0  0  0  0  0  0  0  0  0
   -4.8574   -2.8013   -1.0391 H   0  0  0  0  0  0  0  0  0  0  0  0
   -4.0683   -5.4009    1.5037 H   0  0  0  0  0  0  0  0  0  0  0  0
   -3.4153   -4.8203    3.7972 H   0  0  0  0  0  0  0  0  0  0  0  0
   -3.3884   -2.4323    4.5628 H   0  0  0  0  0  0  0  0  0  0  0  0
   -4.3371    2.1786    2.1300 H   0  0  0  0  0  0  0  0  0  0  0  0
   -6.7913    1.4085    2.1794 H   0  0  0  0  0  0  0  0  0  0  0  0
   -6.3981    3.0196    1.5809 H   0  0  0  0  0  0  0  0  0  0  0  0
   -7.1130    0.6050   -0.1378 H   0  0  0  0  0  0  0  0  0  0  0  0
   -8.0118    2.1053    0.0913 H   0  0  0  0  0  0  0  0  0  0  0  0
   -4.4850    2.8503   -1.8202 H   0  0  0  0  0  0  0  0  0  0  0  0
    5.6891    6.0916    0.8039 H   0  0  0  0  0  0  0  0  0  0  0  0
    8.0415    5.6584    1.3331 H   0  0  0  0  0  0  0  0  0  0  0  0
  1  2  1  0
  2  3  2  0
  2  4  2  0
  2  5  1  0
  5  6  1  0
  6  7  2  0
  7  8  1  0
  8  9  1  0
  9 10  1  0
 10 11  2  0
 11 12  1  0
 12 13  2  0
 13 14  1  0
 14 15  1  0
 15 16  1  0
 16 17  2  0
 17 18  1  0
 18 19  1  0
 19 20  1  0
 19 21  1  0
 19 22  1  0
 18 23  2  0
 23 24  1  0
 24 25  1  0
 25 26  1  0
 26 27  1  0
 27 28  1  0
 28 29  2  0
 29 30  1  0
 30 31  1  0
 31 32  1  0
 32 33  1  0
 33 34  2  0
 34 35  1  0
 35 36  2  0
 36 37  1  0
 37 38  2  0
 38 39  1  0
 39 40  2  0
 39 41  1  0
 41 42  1  0
 42 43  1  0
 43 44  1  0
 44 45  1  0
 45 46  2  0
 45 47  1  0
 47 48  1  0
 48 49  2  0
 41 50  1  0
 50 51  2  0
 29 52  1  0
 52 53  2  0
 14 54  2  0
  8 55  2  0
 55 56  1  0
 56  5  2  0
 54 10  1  0
 24 15  2  0
 53 27  1  0
 38 33  1  0
 48 42  1  0
 50 37  1  0
  1 57  1  0
  1 58  1  0
  1 59  1  0
  6 60  1  0
  7 61  1  0
  9 62  1  0
 12 63  1  0
 13 64  1  0
 16 65  1  0
 17 66  1  0
 23 67  1  0
 25 68  1  0
 25 69  1  0
 26 70  1  0
 26 71  1  0
 28 72  1  0
 30 73  1  0
 30 74  1  0
 31 75  1  0
 31 76  1  0
 32 77  1  0
 34 78  1  0
 35 79  1  0
 36 80  1  0
 42 81  1  0
 43 82  1  0
 43 83  1  0
 44 84  1  0
 44 85  1  0
 47 86  1  0
 55 87  1  0
 56 88  1  0
M  END
$$$$
