
     RDKit          3D

 89 95  0  0  0  0  0  0  0  0999 V2000
   12.3244    0.8821   -1.2428 C   0  0  0  0  0  0  0  0  0  0  0  0
   11.1263    2.1779   -1.0721 S   0  0  0  0  0  0  0  0  0  0  0  0
   11.0109    2.4982    0.3394 O   0  0  0  0  0  0  0  0  0  0  0  0
   11.4204    3.2019   -2.0546 O   0  0  0  0  0  0  0  0  0  0  0  0
    9.6179    1.3829   -1.5772 C   0  0  0  0  0  0  0  0  0  0  0  0
    9.3183    1.2910   -2.9368 C   0  0  0  0  0  0  0  0  0  0  0  0
    8.1556    0.6216   -3.3444 C   0  0  0  0  0  0  0  0  0  0  0  0
    7.2953    0.0101   -2.4071 C   0  0  0  0  0  0  0  0  0  0  0  0
    6.1653   -0.6731   -2.8874 N   0  0  0  0  0  0  0  0  0  0  0  0
    5.2465   -1.5010   -2.2448 C   0  0  0  0  0  0  0  0  0  0  0  0
    4.8369   -2.5464   -2.9805 N   0  0  0  0  0  0  0  0  0  0  0  0
    4.0212   -3.4308   -2.3858 C   0  0  0  0  0  0  0  0  0  0  0  0
    3.5640   -3.2950   -1.1025 C   0  0  0  0  0  0  0  0  0  0  0  0
    3.9593   -2.1475   -0.4391 C   0  0  0  0  0  0  0  0  0  0  0  0
    3.5155   -1.8183    0.9354 C   0  0  0  0  0  0  0  0  0  0  0  0
    4.5135   -1.5117    1.8860 C   0  0  0  0  0  0  0  0  0  0  0  0
    4.2134   -1.1928    3.2067 C   0  0  0  0  0  0  0  0  0  0  0  0
    2.8857   -1.1739    3.6289 C   0  0  0  0  0  0  0  0  0  0  0  0
    2.5537   -0.8233    5.0607 C   0  0  0  0  0  0  0  0  0  0  0  0
    2.7066    0.5053    5.3247 F   0  0  0  0  0  0  0  0  0  0  0  0
    1.2649   -1.1162    5.3986 F   0  0  0  0  0  0  0  0  0  0  0  0
    3.3320   -1.4791    5.9688 F   0  0  0  0  0  0  0  0  0  0  0  0
    1.8717   -1.4633    2.6973 C   0  0  0  0  0  0  0  0  0  0  0  0
    2.1497   -1.7764    1.3501 C   0  0  0  0  0  0  0  0  0  0  0  0
    1.0263   -2.0622    0.3603 C   0  0  0  0  0  0  0  0  0  0  0  0
   -0.4399   -1.9184    0.7979 C   0  0  0  0  0  0  0  0  0  0  0  0
   -0.9403   -0.5661    0.8153 N   0  0  0  0  0  0  0  0  0  0  0  0
   -1.3829    0.1544    1.8806 C   0  0  0  0  0  0  0  0  0  0  0  0
   -1.9058    1.2958    1.3124 C   0  0  0  0  0  0  0  0  0  0  0  0
   -2.5382    2.4760    1.9468 C   0  0  0  0  0  0  0  0  0  0  0  0
   -3.8312    2.1672    2.7037 C   0  0  0  0  0  0  0  0  0  0  0  0
   -4.9077    1.7322    1.8172 N   0  0  0  0  0  0  0  0  0  0  0  0
   -5.4800    0.4659    1.8476 C   0  0  0  0  0  0  0  0  0  0  0  0
   -5.2654   -0.4979    2.8495 C   0  0  0  0  0  0  0  0  0  0  0  0
   -5.9190   -1.7496    2.8558 C   0  0  0  0  0  0  0  0  0  0  0  0
   -6.8389   -2.0703    1.8591 C   0  0  0  0  0  0  0  0  0  0  0  0
   -7.0891   -1.1033    0.9102 C   0  0  0  0  0  0  0  0  0  0  0  0
   -6.4432    0.1351    0.8985 C   0  0  0  0  0  0  0  0  0  0  0  0
   -6.9666    0.9496   -0.2412 C   0  0  0  0  0  0  0  0  0  0  0  0
   -7.9914    0.0958   -0.8270 N   0  0  0  0  0  0  0  0  0  0  0  0
   -8.6085    0.3367   -2.1355 C   0  0  0  0  0  0  0  0  0  0  0  0
   -9.5897    1.5095   -2.1498 C   0  0  0  0  0  0  0  0  0  0  0  0
   -8.9072    2.8537   -2.3101 C   0  0  0  0  0  0  0  0  0  0  0  0
   -7.8407    2.8520   -3.3744 C   0  0  0  0  0  0  0  0  0  0  0  0
   -7.2397    3.8911   -3.6914 O   0  0  0  0  0  0  0  0  0  0  0  0
   -7.4951    1.6488   -3.9099 N   0  0  0  0  0  0  0  0  0  0  0  0
   -7.5496    0.4606   -3.2282 C   0  0  0  0  0  0  0  0  0  0  0  0
   -6.6971   -0.4023   -3.4386 O   0  0  0  0  0  0  0  0  0  0  0  0
   -8.0392   -1.1483   -0.2099 C   0  0  0  0  0  0  0  0  0  0  0  0
   -8.7236   -2.1103   -0.5083 O   0  0  0  0  0  0  0  0  0  0  0  0
   -1.7572    1.2252   -0.0506 N   0  0  0  0  0  0  0  0  0  0  0  0
   -1.1646    0.0803   -0.3478 N   0  0  0  0  0  0  0  0  0  0  0  0
    4.8276   -1.2677   -0.9942 N   0  0  0  0  0  0  0  0  0  0  0  0
    7.5864    0.1872   -1.0472 C   0  0  0  0  0  0  0  0  0  0  0  0
    8.7460    0.8562   -0.6252 C   0  0  0  0  0  0  0  0  0  0  0  0
   12.0748    0.0775   -0.5492 H   0  0  0  0  0  0  0  0  0  0  0  0
   12.3192    0.5320   -2.2749 H   0  0  0  0  0  0  0  0  0  0  0  0
   13.3063    1.2875   -0.9912 H   0  0  0  0  0  0  0  0  0  0  0  0
    9.9795    1.7274   -3.6850 H   0  0  0  0  0  0  0  0  0  0  0  0
    7.9297    0.5575   -4.4028 H   0  0  0  0  0  0  0  0  0  0  0  0
    6.2602   -1.0435   -3.8294 H   0  0  0  0  0  0  0  0  0  0  0  0
    3.7473   -4.2822   -3.0000 H   0  0  0  0  0  0  0  0  0  0  0  0
    2.9449   -4.0583   -0.6503 H   0  0  0  0  0  0  0  0  0  0  0  0
    5.5634   -1.5235    1.5827 H   0  0  0  0  0  0  0  0  0  0  0  0
    5.0234   -0.9531    3.8988 H   0  0  0  0  0  0  0  0  0  0  0  0
    0.8483   -1.4365    3.0631 H   0  0  0  0  0  0  0  0  0  0  0  0
    1.1258   -3.1126    0.0741 H   0  0  0  0  0  0  0  0  0  0  0  0
    1.1880   -1.4428   -0.5319 H   0  0  0  0  0  0  0  0  0  0  0  0
   -0.6329   -2.3772    1.7715 H   0  0  0  0  0  0  0  0  0  0  0  0
   -1.0774   -2.4545    0.0846 H   0  0  0  0  0  0  0  0  0  0  0  0
   -1.3193   -0.1953    2.9034 H   0  0  0  0  0  0  0  0  0  0  0  0
   -1.8167    2.9214    2.6433 H   0  0  0  0  0  0  0  0  0  0  0  0
   -2.7333    3.2334    1.1774 H   0  0  0  0  0  0  0  0  0  0  0  0
   -3.6301    1.4776    3.5263 H   0  0  0  0  0  0  0  0  0  0  0  0
   -4.1660    3.0969    3.1798 H   0  0  0  0  0  0  0  0  0  0  0  0
   -4.7738    2.0606    0.8604 H   0  0  0  0  0  0  0  0  0  0  0  0
   -4.5746   -0.3152    3.6676 H   0  0  0  0  0  0  0  0  0  0  0  0
   -5.7013   -2.4654    3.6481 H   0  0  0  0  0  0  0  0  0  0  0  0
   -7.3567   -3.0205    1.8407 H   0  0  0  0  0  0  0  0  0  0  0  0
   -6.1867    1.1490   -0.9767 H   0  0  0  0  0  0  0  0  0  0  0  0
   -7.4244    1.8769    0.1106 H   0  0  0  0  0  0  0  0  0  0  0  0
   -9.1945   -0.5552   -2.3901 H   0  0  0  0  0  0  0  0  0  0  0  0
  -10.2880    1.3734   -2.9941 H   0  0  0  0  0  0  0  0  0  0  0  0
  -10.2022    1.5125   -1.2332 H   0  0  0  0  0  0  0  0  0  0  0  0
   -9.6538    3.6135   -2.5738 H   0  0  0  0  0  0  0  0  0  0  0  0
   -8.4419    3.1674   -1.3719 H   0  0  0  0  0  0  0  0  0  0  0  0
   -6.6948    1.7010   -4.5264 H   0  0  0  0  0  0  0  0  0  0  0  0
    6.9191   -0.2025   -0.2811 H   0  0  0  0  0  0  0  0  0  0  0  0
    8.9348    0.9739    0.4420 H   0  0  0  0  0  0  0  0  0  0  0  0
  1  2  1  0
  2  3  2  0
  2  4  2  0
  2  5  1  0
  5  6  1  0
  6  7  2  0
  7  8  1  0
  8  9  1  0
  9 10  1  0
 10 11  2  0
 11 12  1  0
 12 13  2  0
 13 14  1  0
 14 15  1  0
 15 16  1  0
 16 17  2  0
 17 18  1  0
 18 19  1  0
 19 20  1  0
 19 21  1  0
 19 22  1  0
 18 23  2  0
 23 24  1  0
 24 25  1  0
 25 26  1  0
 26 27  1  0
 27 28  1  0
 28 29  2  0
 29 30  1  0
 30 31  1  0
 31 32  1  0
 32 33  1  0
 33 34  2  0
 34 35  1  0
 35 36  2  0
 36 37  1  0
 37 38  2  0
 38 39  1  0
 39 40  1  0
 40 41  1  0
 41 42  1  0
 42 43  1  0
 43 44  1  0
 44 45  2  0
 44 46  1  0
 46 47  1  0
 47 48  2  0
 40 49  1  0
 49 50  2  0
 29 51  1  0
 51 52  2  0
 14 53  2  0
  8 54  2  0
 54 55  1  0
 55  5  2  0
 53 10  1  0
 24 15  2  0
 52 27  1  0
 38 33  1  0
 47 41  1  0
 49 37  1  0
  1 56  1  0
  1 57  1  0
  1 58  1  0
  6 59  1  0
  7 60  1  0
  9 61  1  0
 12 62  1  0
 13 63  1  0
 16 64  1  0
 17 65  1  0
 23 66  1  0
 25 67  1  0
 25 68  1  0
 26 69  1  0
 26 70  1  0
 28 71  1  0
 30 72  1  0
 30 73  1  0
 31 74  1  0
 31 75  1  0
 32 76  1  0
 34 77  1  0
 35 78  1  0
 36 79  1  0
 39 80  1  0
 39 81  1  0
 41 82  1  0
 42 83  1  0
 42 84  1  0
 43 85  1  0
 43 86  1  0
 46 87  1  0
 54 88  1  0
 55 89  1  0
M  END
$$$$
