
     RDKit          3D

 84 89  0  0  0  0  0  0  0  0999 V2000
    9.5152   -4.3076   -2.2937 C   0  0  0  0  0  0  0  0  0  0  0  0
    9.9941   -3.5935   -0.7406 S   0  0  0  0  0  0  0  0  0  0  0  0
   10.2270   -4.6891    0.1823 O   0  0  0  0  0  0  0  0  0  0  0  0
   11.0207   -2.5956   -0.9895 O   0  0  0  0  0  0  0  0  0  0  0  0
    8.5441   -2.7273   -0.2070 C   0  0  0  0  0  0  0  0  0  0  0  0
    8.0947   -1.6319   -0.9482 C   0  0  0  0  0  0  0  0  0  0  0  0
    6.9454   -0.9529   -0.5338 C   0  0  0  0  0  0  0  0  0  0  0  0
    6.2544   -1.3356    0.6269 C   0  0  0  0  0  0  0  0  0  0  0  0
    5.0974   -0.6867    1.0799 N   0  0  0  0  0  0  0  0  0  0  0  0
    4.2686    0.2335    0.4452 C   0  0  0  0  0  0  0  0  0  0  0  0
    4.0931    0.1985   -0.8870 N   0  0  0  0  0  0  0  0  0  0  0  0
    3.2519    1.0978   -1.4191 C   0  0  0  0  0  0  0  0  0  0  0  0
    2.5893    2.0430   -0.6826 C   0  0  0  0  0  0  0  0  0  0  0  0
    2.8290    2.0124    0.6712 C   0  0  0  0  0  0  0  0  0  0  0  0
    2.2301    2.9879    1.5846 C   0  0  0  0  0  0  0  0  0  0  0  0
    2.9299    4.1866    1.8422 C   0  0  0  0  0  0  0  0  0  0  0  0
    2.4210    5.1572    2.7090 C   0  0  0  0  0  0  0  0  0  0  0  0
    1.1954    4.9522    3.3517 C   0  0  0  0  0  0  0  0  0  0  0  0
    0.6618    5.9992    4.2974 C   0  0  0  0  0  0  0  0  0  0  0  0
    1.4388    6.1387    5.4064 F   0  0  0  0  0  0  0  0  0  0  0  0
    0.5928    7.2342    3.7267 F   0  0  0  0  0  0  0  0  0  0  0  0
   -0.5958    5.7348    4.7489 F   0  0  0  0  0  0  0  0  0  0  0  0
    0.4939    3.7593    3.1064 C   0  0  0  0  0  0  0  0  0  0  0  0
    0.9869    2.7750    2.2247 C   0  0  0  0  0  0  0  0  0  0  0  0
    0.1495    1.5257    2.0019 C   0  0  0  0  0  0  0  0  0  0  0  0
   -1.0760    1.7907    1.1223 C   0  0  0  0  0  0  0  0  0  0  0  0
   -0.6670    2.0187   -0.2279 O   0  0  0  0  0  0  0  0  0  0  0  0
   -1.7335    2.4862   -1.0569 C   0  0  0  0  0  0  0  0  0  0  0  0
   -1.7910    1.6989   -2.3731 C   0  0  0  0  0  0  0  0  0  0  0  0
   -2.8445    0.6702   -2.3587 N   0  0  0  0  0  0  0  0  0  0  0  0
   -2.7213   -0.4886   -1.5983 C   0  0  0  0  0  0  0  0  0  0  0  0
   -1.4856   -1.0626   -1.2501 C   0  0  0  0  0  0  0  0  0  0  0  0
   -1.3933   -2.2701   -0.5227 C   0  0  0  0  0  0  0  0  0  0  0  0
   -2.5418   -2.9574   -0.1394 C   0  0  0  0  0  0  0  0  0  0  0  0
   -3.7494   -2.4123   -0.5231 C   0  0  0  0  0  0  0  0  0  0  0  0
   -3.8534   -1.2192   -1.2468 C   0  0  0  0  0  0  0  0  0  0  0  0
   -5.2982   -0.9250   -1.5072 C   0  0  0  0  0  0  0  0  0  0  0  0
   -5.9820   -2.0715   -0.9253 N   0  0  0  0  0  0  0  0  0  0  0  0
   -7.4139   -2.1098   -0.6662 C   0  0  0  0  0  0  0  0  0  0  0  0
   -8.2511   -1.7891   -1.9014 C   0  0  0  0  0  0  0  0  0  0  0  0
   -9.7258   -1.9534   -1.5686 C   0  0  0  0  0  0  0  0  0  0  0  0
  -10.1107   -1.1096   -0.3782 C   0  0  0  0  0  0  0  0  0  0  0  0
  -11.1991   -0.5449   -0.2962 O   0  0  0  0  0  0  0  0  0  0  0  0
   -9.1807   -0.9967    0.6264 N   0  0  0  0  0  0  0  0  0  0  0  0
   -7.8224   -1.1523    0.4643 C   0  0  0  0  0  0  0  0  0  0  0  0
   -7.0394   -0.5303    1.1789 O   0  0  0  0  0  0  0  0  0  0  0  0
   -5.1022   -2.9239   -0.2748 C   0  0  0  0  0  0  0  0  0  0  0  0
   -5.3708   -3.9031    0.3934 O   0  0  0  0  0  0  0  0  0  0  0  0
    3.6521    1.1123    1.2474 N   0  0  0  0  0  0  0  0  0  0  0  0
    6.7350   -2.4369    1.3555 C   0  0  0  0  0  0  0  0  0  0  0  0
    7.8731   -3.1325    0.9431 C   0  0  0  0  0  0  0  0  0  0  0  0
   10.3519   -4.9064   -2.6609 H   0  0  0  0  0  0  0  0  0  0  0  0
    9.3039   -3.5086   -3.0063 H   0  0  0  0  0  0  0  0  0  0  0  0
    8.6374   -4.9405   -2.1396 H   0  0  0  0  0  0  0  0  0  0  0  0
    8.6274   -1.2908   -1.8323 H   0  0  0  0  0  0  0  0  0  0  0  0
    6.6127   -0.0967   -1.1205 H   0  0  0  0  0  0  0  0  0  0  0  0
    5.0980   -0.4837    2.0694 H   0  0  0  0  0  0  0  0  0  0  0  0
    3.1280    1.0333   -2.4960 H   0  0  0  0  0  0  0  0  0  0  0  0
    1.9201    2.7598   -1.1368 H   0  0  0  0  0  0  0  0  0  0  0  0
    3.8942    4.3646    1.3647 H   0  0  0  0  0  0  0  0  0  0  0  0
    2.9920    6.0710    2.8862 H   0  0  0  0  0  0  0  0  0  0  0  0
   -0.4585    3.5891    3.6091 H   0  0  0  0  0  0  0  0  0  0  0  0
   -0.1761    1.1615    2.9851 H   0  0  0  0  0  0  0  0  0  0  0  0
    0.7534    0.7266    1.5594 H   0  0  0  0  0  0  0  0  0  0  0  0
   -1.6504    2.6471    1.4954 H   0  0  0  0  0  0  0  0  0  0  0  0
   -1.7266    0.9077    1.1418 H   0  0  0  0  0  0  0  0  0  0  0  0
   -2.6973    2.4604   -0.5395 H   0  0  0  0  0  0  0  0  0  0  0  0
   -1.5111    3.5325   -1.2758 H   0  0  0  0  0  0  0  0  0  0  0  0
   -0.8160    1.2846   -2.6469 H   0  0  0  0  0  0  0  0  0  0  0  0
   -2.0681    2.3958   -3.1734 H   0  0  0  0  0  0  0  0  0  0  0  0
   -3.7714    1.0856   -2.3016 H   0  0  0  0  0  0  0  0  0  0  0  0
   -0.5502   -0.5803   -1.5292 H   0  0  0  0  0  0  0  0  0  0  0  0
   -0.4118   -2.6664   -0.2633 H   0  0  0  0  0  0  0  0  0  0  0  0
   -2.4966   -3.8846    0.4251 H   0  0  0  0  0  0  0  0  0  0  0  0
   -5.6021   -0.0096   -0.9972 H   0  0  0  0  0  0  0  0  0  0  0  0
   -5.5212   -0.8852   -2.5787 H   0  0  0  0  0  0  0  0  0  0  0  0
   -7.6581   -3.1216   -0.3149 H   0  0  0  0  0  0  0  0  0  0  0  0
   -8.0636   -0.7627   -2.2326 H   0  0  0  0  0  0  0  0  0  0  0  0
   -7.9807   -2.4502   -2.7318 H   0  0  0  0  0  0  0  0  0  0  0  0
  -10.3279   -1.6396   -2.4297 H   0  0  0  0  0  0  0  0  0  0  0  0
   -9.9621   -2.9978   -1.3385 H   0  0  0  0  0  0  0  0  0  0  0  0
   -9.4465   -0.3554    1.3602 H   0  0  0  0  0  0  0  0  0  0  0  0
    6.2140   -2.7620    2.2567 H   0  0  0  0  0  0  0  0  0  0  0  0
    8.2272   -3.9809    1.5259 H   0  0  0  0  0  0  0  0  0  0  0  0
  1  2  1  0
  2  3  2  0
  2  4  2  0
  2  5  1  0
  5  6  1  0
  6  7  2  0
  7  8  1  0
  8  9  1  0
  9 10  1  0
 10 11  2  0
 11 12  1  0
 12 13  2  0
 13 14  1  0
 14 15  1  0
 15 16  1  0
 16 17  2  0
 17 18  1  0
 18 19  1  0
 19 20  1  0
 19 21  1  0
 19 22  1  0
 18 23  2  0
 23 24  1  0
 24 25  1  0
 25 26  1  0
 26 27  1  0
 27 28  1  0
 28 29  1  0
 29 30  1  0
 30 31  1  0
 31 32  2  0
 32 33  1  0
 33 34  2  0
 34 35  1  0
 35 36  2  0
 36 37  1  0
 37 38  1  0
 38 39  1  0
 39 40  1  0
 40 41  1  0
 41 42  1  0
 42 43  2  0
 42 44  1  0
 44 45  1  0
 45 46  2  0
 38 47  1  0
 47 48  2  0
 14 49  2  0
  8 50  2  0
 50 51  1  0
 51  5  2  0
 49 10  1  0
 24 15  2  0
 36 31  1  0
 45 39  1  0
 47 35  1  0
  1 52  1  0
  1 53  1  0
  1 54  1  0
  6 55  1  0
  7 56  1  0
  9 57  1  0
 12 58  1  0
 13 59  1  0
 16 60  1  0
 17 61  1  0
 23 62  1  0
 25 63  1  0
 25 64  1  0
 26 65  1  0
 26 66  1  0
 28 67  1  0
 28 68  1  0
 29 69  1  0
 29 70  1  0
 30 71  1  0
 32 72  1  0
 33 73  1  0
 34 74  1  0
 37 75  1  0
 37 76  1  0
 39 77  1  0
 40 78  1  0
 40 79  1  0
 41 80  1  0
 41 81  1  0
 44 82  1  0
 50 83  1  0
 51 84  1  0
M  END
$$$$
