
     RDKit          3D

 83 88  0  0  0  0  0  0  0  0999 V2000
  -10.1975    0.8963   -1.9680 C   0  0  0  0  0  0  0  0  0  0  0  0
   -8.6293    1.0451   -2.7835 S   0  0  0  0  0  0  0  0  0  0  0  0
   -8.6191    2.2917   -3.5260 O   0  0  0  0  0  0  0  0  0  0  0  0
   -8.3511   -0.2174   -3.4429 O   0  0  0  0  0  0  0  0  0  0  0  0
   -7.4845    1.2196   -1.4380 C   0  0  0  0  0  0  0  0  0  0  0  0
   -6.7343    0.1244   -1.0154 C   0  0  0  0  0  0  0  0  0  0  0  0
   -5.8287    0.2742    0.0410 C   0  0  0  0  0  0  0  0  0  0  0  0
   -5.6621    1.5041    0.6911 C   0  0  0  0  0  0  0  0  0  0  0  0
   -4.7414    1.7187    1.7223 N   0  0  0  0  0  0  0  0  0  0  0  0
   -3.7566    0.9223    2.3013 C   0  0  0  0  0  0  0  0  0  0  0  0
   -3.2152    1.4077    3.4282 N   0  0  0  0  0  0  0  0  0  0  0  0
   -2.2455    0.6767    4.0073 C   0  0  0  0  0  0  0  0  0  0  0  0
   -1.7758   -0.5032    3.4895 C   0  0  0  0  0  0  0  0  0  0  0  0
   -2.3643   -0.9205    2.3134 C   0  0  0  0  0  0  0  0  0  0  0  0
   -1.9415   -2.1496    1.6145 C   0  0  0  0  0  0  0  0  0  0  0  0
   -1.9303   -3.3670    2.3282 C   0  0  0  0  0  0  0  0  0  0  0  0
   -1.5484   -4.5691    1.7273 C   0  0  0  0  0  0  0  0  0  0  0  0
   -1.1555   -4.5949    0.3878 C   0  0  0  0  0  0  0  0  0  0  0  0
   -0.7687   -5.8919   -0.2814 C   0  0  0  0  0  0  0  0  0  0  0  0
    0.2107   -5.7391   -1.2159 F   0  0  0  0  0  0  0  0  0  0  0  0
   -1.8165   -6.4747   -0.9266 F   0  0  0  0  0  0  0  0  0  0  0  0
   -0.3020   -6.8275    0.5934 F   0  0  0  0  0  0  0  0  0  0  0  0
   -1.1679   -3.3951   -0.3389 C   0  0  0  0  0  0  0  0  0  0  0  0
   -1.5531   -2.1724    0.2506 C   0  0  0  0  0  0  0  0  0  0  0  0
   -1.5365   -0.9365   -0.6329 C   0  0  0  0  0  0  0  0  0  0  0  0
   -0.4486    0.0742   -0.2563 C   0  0  0  0  0  0  0  0  0  0  0  0
   -0.4324    1.2517   -1.2374 C   0  0  0  0  0  0  0  0  0  0  0  0
    0.4205    2.4245   -0.7516 C   0  0  0  0  0  0  0  0  0  0  0  0
    1.8189    2.0635   -0.5480 N   0  0  0  0  0  0  0  0  0  0  0  0
    2.7242    1.8996   -1.5873 C   0  0  0  0  0  0  0  0  0  0  0  0
    2.4649    2.2591   -2.9217 C   0  0  0  0  0  0  0  0  0  0  0  0
    3.4391    2.1471   -3.9385 C   0  0  0  0  0  0  0  0  0  0  0  0
    4.7227    1.7002   -3.6435 C   0  0  0  0  0  0  0  0  0  0  0  0
    4.9855    1.3919   -2.3255 C   0  0  0  0  0  0  0  0  0  0  0  0
    4.0247    1.4887   -1.3147 C   0  0  0  0  0  0  0  0  0  0  0  0
    4.6434    1.0976   -0.0126 C   0  0  0  0  0  0  0  0  0  0  0  0
    6.0390    0.8795   -0.3577 N   0  0  0  0  0  0  0  0  0  0  0  0
    6.9816    0.3100    0.5967 C   0  0  0  0  0  0  0  0  0  0  0  0
    8.3804    0.9188    0.5120 C   0  0  0  0  0  0  0  0  0  0  0  0
    9.2677    0.2863    1.5716 C   0  0  0  0  0  0  0  0  0  0  0  0
    9.3163   -1.2163    1.4200 C   0  0  0  0  0  0  0  0  0  0  0  0
   10.2397   -1.8887    1.8704 O   0  0  0  0  0  0  0  0  0  0  0  0
    8.2281   -1.8109    0.8334 N   0  0  0  0  0  0  0  0  0  0  0  0
    7.0410   -1.2192    0.4666 C   0  0  0  0  0  0  0  0  0  0  0  0
    6.0698   -1.9114    0.1636 O   0  0  0  0  0  0  0  0  0  0  0  0
    6.2494    0.9510   -1.7248 C   0  0  0  0  0  0  0  0  0  0  0  0
    7.2632    0.6976   -2.3456 O   0  0  0  0  0  0  0  0  0  0  0  0
   -3.3583   -0.2212    1.7310 N   0  0  0  0  0  0  0  0  0  0  0  0
   -6.4100    2.5988    0.2221 C   0  0  0  0  0  0  0  0  0  0  0  0
   -7.3175    2.4653   -0.8345 C   0  0  0  0  0  0  0  0  0  0  0  0
  -10.9637    0.7598   -2.7327 H   0  0  0  0  0  0  0  0  0  0  0  0
  -10.3963    1.8087   -1.4021 H   0  0  0  0  0  0  0  0  0  0  0  0
  -10.1744    0.0273   -1.3062 H   0  0  0  0  0  0  0  0  0  0  0  0
   -6.8324   -0.8455   -1.4982 H   0  0  0  0  0  0  0  0  0  0  0  0
   -5.2608   -0.6005    0.3476 H   0  0  0  0  0  0  0  0  0  0  0  0
   -4.8706    2.5444    2.2890 H   0  0  0  0  0  0  0  0  0  0  0  0
   -1.8403    1.0872    4.9284 H   0  0  0  0  0  0  0  0  0  0  0  0
   -0.9827   -1.0583    3.9738 H   0  0  0  0  0  0  0  0  0  0  0  0
   -2.2472   -3.3904    3.3700 H   0  0  0  0  0  0  0  0  0  0  0  0
   -1.5671   -5.4880    2.3122 H   0  0  0  0  0  0  0  0  0  0  0  0
   -0.8753   -3.4153   -1.3897 H   0  0  0  0  0  0  0  0  0  0  0  0
   -1.3816   -1.2389   -1.6775 H   0  0  0  0  0  0  0  0  0  0  0  0
   -2.5263   -0.4676   -0.6273 H   0  0  0  0  0  0  0  0  0  0  0  0
   -0.6086    0.4522    0.7581 H   0  0  0  0  0  0  0  0  0  0  0  0
    0.5297   -0.4220   -0.2573 H   0  0  0  0  0  0  0  0  0  0  0  0
   -0.0871    0.9015   -2.2169 H   0  0  0  0  0  0  0  0  0  0  0  0
   -1.4569    1.6193   -1.3752 H   0  0  0  0  0  0  0  0  0  0  0  0
    0.3261    3.2769   -1.4340 H   0  0  0  0  0  0  0  0  0  0  0  0
    0.0256    2.7751    0.2101 H   0  0  0  0  0  0  0  0  0  0  0  0
    1.9586    1.4228    0.2276 H   0  0  0  0  0  0  0  0  0  0  0  0
    1.4870    2.6321   -3.2157 H   0  0  0  0  0  0  0  0  0  0  0  0
    3.1832    2.4250   -4.9593 H   0  0  0  0  0  0  0  0  0  0  0  0
    5.4902    1.6130   -4.4045 H   0  0  0  0  0  0  0  0  0  0  0  0
    4.5814    1.8953    0.7330 H   0  0  0  0  0  0  0  0  0  0  0  0
    4.2105    0.1670    0.3654 H   0  0  0  0  0  0  0  0  0  0  0  0
    6.5790    0.5186    1.5973 H   0  0  0  0  0  0  0  0  0  0  0  0
    8.8319    0.7456   -0.4707 H   0  0  0  0  0  0  0  0  0  0  0  0
    8.3324    2.0038    0.6606 H   0  0  0  0  0  0  0  0  0  0  0  0
    8.9012    0.5166    2.5775 H   0  0  0  0  0  0  0  0  0  0  0  0
   10.2867    0.6774    1.4762 H   0  0  0  0  0  0  0  0  0  0  0  0
    8.2533   -2.8197    0.7735 H   0  0  0  0  0  0  0  0  0  0  0  0
   -6.2763    3.5814    0.6709 H   0  0  0  0  0  0  0  0  0  0  0  0
   -7.8676    3.3351   -1.1852 H   0  0  0  0  0  0  0  0  0  0  0  0
  1  2  1  0
  2  3  2  0
  2  4  2  0
  2  5  1  0
  5  6  1  0
  6  7  2  0
  7  8  1  0
  8  9  1  0
  9 10  1  0
 10 11  2  0
 11 12  1  0
 12 13  2  0
 13 14  1  0
 14 15  1  0
 15 16  1  0
 16 17  2  0
 17 18  1  0
 18 19  1  0
 19 20  1  0
 19 21  1  0
 19 22  1  0
 18 23  2  0
 23 24  1  0
 24 25  1  0
 25 26  1  0
 26 27  1  0
 27 28  1  0
 28 29  1  0
 29 30  1  0
 30 31  2  0
 31 32  1  0
 32 33  2  0
 33 34  1  0
 34 35  2  0
 35 36  1  0
 36 37  1  0
 37 38  1  0
 38 39  1  0
 39 40  1  0
 40 41  1  0
 41 42  2  0
 41 43  1  0
 43 44  1  0
 44 45  2  0
 37 46  1  0
 46 47  2  0
 14 48  2  0
  8 49  2  0
 49 50  1  0
 50  5  2  0
 48 10  1  0
 24 15  2  0
 35 30  1  0
 44 38  1  0
 46 34  1  0
  1 51  1  0
  1 52  1  0
  1 53  1  0
  6 54  1  0
  7 55  1  0
  9 56  1  0
 12 57  1  0
 13 58  1  0
 16 59  1  0
 17 60  1  0
 23 61  1  0
 25 62  1  0
 25 63  1  0
 26 64  1  0
 26 65  1  0
 27 66  1  0
 27 67  1  0
 28 68  1  0
 28 69  1  0
 29 70  1  0
 31 71  1  0
 32 72  1  0
 33 73  1  0
 36 74  1  0
 36 75  1  0
 38 76  1  0
 39 77  1  0
 39 78  1  0
 40 79  1  0
 40 80  1  0
 43 81  1  0
 49 82  1  0
 50 83  1  0
M  END
$$$$
