
     RDKit          3D

 97102  0  0  0  0  0  0  0  0999 V2000
   11.6392    3.8480   -4.4996 C   0  0  0  0  0  0  0  0  0  0  0  0
   12.2044    2.1796   -4.2995 S   0  0  0  0  0  0  0  0  0  0  0  0
   12.1004    1.5097   -5.5829 O   0  0  0  0  0  0  0  0  0  0  0  0
   13.4655    2.2176   -3.5817 O   0  0  0  0  0  0  0  0  0  0  0  0
   10.9872    1.4656   -3.2224 C   0  0  0  0  0  0  0  0  0  0  0  0
   11.2119    1.4259   -1.8479 C   0  0  0  0  0  0  0  0  0  0  0  0
   10.2483    0.8566   -1.0075 C   0  0  0  0  0  0  0  0  0  0  0  0
    9.0646    0.3123   -1.5207 C   0  0  0  0  0  0  0  0  0  0  0  0
    8.0640   -0.2594   -0.7307 N   0  0  0  0  0  0  0  0  0  0  0  0
    7.8823   -0.4211    0.6394 C   0  0  0  0  0  0  0  0  0  0  0  0
    8.7615    0.0499    1.5361 N   0  0  0  0  0  0  0  0  0  0  0  0
    8.4899   -0.1558    2.8358 C   0  0  0  0  0  0  0  0  0  0  0  0
    7.3672   -0.8040    3.2790 C   0  0  0  0  0  0  0  0  0  0  0  0
    6.5079   -1.2463    2.2959 C   0  0  0  0  0  0  0  0  0  0  0  0
    5.2756   -1.9804    2.6183 C   0  0  0  0  0  0  0  0  0  0  0  0
    5.2246   -3.3548    2.3096 C   0  0  0  0  0  0  0  0  0  0  0  0
    4.1075   -4.1329    2.6174 C   0  0  0  0  0  0  0  0  0  0  0  0
    3.0012   -3.5576    3.2473 C   0  0  0  0  0  0  0  0  0  0  0  0
    1.8007   -4.3992    3.6023 C   0  0  0  0  0  0  0  0  0  0  0  0
    1.5179   -5.3516    2.6702 F   0  0  0  0  0  0  0  0  0  0  0  0
    1.9693   -5.0660    4.7786 F   0  0  0  0  0  0  0  0  0  0  0  0
    0.6569   -3.6711    3.7489 F   0  0  0  0  0  0  0  0  0  0  0  0
    3.0386   -2.1902    3.5611 C   0  0  0  0  0  0  0  0  0  0  0  0
    4.1483   -1.3828    3.2320 C   0  0  0  0  0  0  0  0  0  0  0  0
    4.0741    0.1051    3.5425 C   0  0  0  0  0  0  0  0  0  0  0  0
    2.9190    0.8323    2.8406 C   0  0  0  0  0  0  0  0  0  0  0  0
    3.1322    0.8127    1.4322 O   0  0  0  0  0  0  0  0  0  0  0  0
    2.1443    1.5169    0.6760 C   0  0  0  0  0  0  0  0  0  0  0  0
    0.7824    0.8142    0.6338 C   0  0  0  0  0  0  0  0  0  0  0  0
    0.9023   -0.4361   -0.0480 O   0  0  0  0  0  0  0  0  0  0  0  0
   -0.2123   -1.3048    0.1504 C   0  0  0  0  0  0  0  0  0  0  0  0
   -1.4552   -0.8623   -0.6209 C   0  0  0  0  0  0  0  0  0  0  0  0
   -2.5182   -1.7833   -0.3727 O   0  0  0  0  0  0  0  0  0  0  0  0
   -3.7436   -1.3959   -1.0016 C   0  0  0  0  0  0  0  0  0  0  0  0
   -4.5626   -0.4650   -0.0955 C   0  0  0  0  0  0  0  0  0  0  0  0
   -5.7952   -0.0442   -0.7591 N   0  0  0  0  0  0  0  0  0  0  0  0
   -6.7314    0.7102   -0.0459 C   0  0  0  0  0  0  0  0  0  0  0  0
   -6.3838    1.6256    0.9620 C   0  0  0  0  0  0  0  0  0  0  0  0
   -7.3461    2.4441    1.5978 C   0  0  0  0  0  0  0  0  0  0  0  0
   -8.6882    2.3912    1.2247 C   0  0  0  0  0  0  0  0  0  0  0  0
   -9.0187    1.5117    0.2159 C   0  0  0  0  0  0  0  0  0  0  0  0
   -8.0764    0.7045   -0.4000 C   0  0  0  0  0  0  0  0  0  0  0  0
   -8.7900   -0.1003   -1.3950 C   0  0  0  0  0  0  0  0  0  0  0  0
   -8.2642   -0.9463   -2.0953 O   0  0  0  0  0  0  0  0  0  0  0  0
  -10.1037    0.2840   -1.3564 N   0  0  0  0  0  0  0  0  0  0  0  0
  -11.1413   -0.3270   -2.1772 C   0  0  0  0  0  0  0  0  0  0  0  0
  -11.7943    0.6012   -3.1990 C   0  0  0  0  0  0  0  0  0  0  0  0
  -12.9787    1.3791   -2.6534 C   0  0  0  0  0  0  0  0  0  0  0  0
  -13.9377    0.5094   -1.8784 C   0  0  0  0  0  0  0  0  0  0  0  0
  -15.0876    0.8647   -1.6349 O   0  0  0  0  0  0  0  0  0  0  0  0
  -13.4609   -0.6811   -1.3980 N   0  0  0  0  0  0  0  0  0  0  0  0
  -12.1423   -1.0381   -1.2677 C   0  0  0  0  0  0  0  0  0  0  0  0
  -11.7990   -1.8611   -0.4194 O   0  0  0  0  0  0  0  0  0  0  0  0
  -10.3135    1.2336   -0.3978 C   0  0  0  0  0  0  0  0  0  0  0  0
  -11.3565    1.7572   -0.0571 O   0  0  0  0  0  0  0  0  0  0  0  0
    6.7636   -1.0766    0.9816 N   0  0  0  0  0  0  0  0  0  0  0  0
    8.8744    0.3521   -2.9134 C   0  0  0  0  0  0  0  0  0  0  0  0
    9.8263    0.9192   -3.7656 C   0  0  0  0  0  0  0  0  0  0  0  0
   10.6493    3.8373   -4.9584 H   0  0  0  0  0  0  0  0  0  0  0  0
   11.6083    4.3345   -3.5229 H   0  0  0  0  0  0  0  0  0  0  0  0
   12.3443    4.3688   -5.1508 H   0  0  0  0  0  0  0  0  0  0  0  0
   12.1263    1.8246   -1.4151 H   0  0  0  0  0  0  0  0  0  0  0  0
   10.4531    0.8409    0.0584 H   0  0  0  0  0  0  0  0  0  0  0  0
    7.2678   -0.6617   -1.2048 H   0  0  0  0  0  0  0  0  0  0  0  0
    9.2296    0.2303    3.5306 H   0  0  0  0  0  0  0  0  0  0  0  0
    7.1741   -0.9589    4.3313 H   0  0  0  0  0  0  0  0  0  0  0  0
    6.0743   -3.8259    1.8152 H   0  0  0  0  0  0  0  0  0  0  0  0
    4.1055   -5.1900    2.3574 H   0  0  0  0  0  0  0  0  0  0  0  0
    2.1761   -1.7436    4.0564 H   0  0  0  0  0  0  0  0  0  0  0  0
    3.9694    0.2179    4.6296 H   0  0  0  0  0  0  0  0  0  0  0  0
    5.0025    0.6128    3.2642 H   0  0  0  0  0  0  0  0  0  0  0  0
    2.8968    1.8740    3.1817 H   0  0  0  0  0  0  0  0  0  0  0  0
    1.9612    0.3687    3.0904 H   0  0  0  0  0  0  0  0  0  0  0  0
    2.5377    1.5927   -0.3437 H   0  0  0  0  0  0  0  0  0  0  0  0
    2.0417    2.5342    1.0701 H   0  0  0  0  0  0  0  0  0  0  0  0
    0.3954    0.6524    1.6445 H   0  0  0  0  0  0  0  0  0  0  0  0
    0.0775    1.4478    0.0850 H   0  0  0  0  0  0  0  0  0  0  0  0
    0.0839   -2.3013   -0.1968 H   0  0  0  0  0  0  0  0  0  0  0  0
   -0.4284   -1.4133    1.2201 H   0  0  0  0  0  0  0  0  0  0  0  0
   -1.2297   -0.8328   -1.6935 H   0  0  0  0  0  0  0  0  0  0  0  0
   -1.7551    0.1443   -0.3138 H   0  0  0  0  0  0  0  0  0  0  0  0
   -3.5532   -0.9413   -1.9822 H   0  0  0  0  0  0  0  0  0  0  0  0
   -4.3157   -2.3133   -1.1831 H   0  0  0  0  0  0  0  0  0  0  0  0
   -3.9525    0.4078    0.1578 H   0  0  0  0  0  0  0  0  0  0  0  0
   -4.7852   -0.9868    0.8436 H   0  0  0  0  0  0  0  0  0  0  0  0
   -6.2553   -0.8046   -1.2745 H   0  0  0  0  0  0  0  0  0  0  0  0
   -5.3481    1.7361    1.2735 H   0  0  0  0  0  0  0  0  0  0  0  0
   -7.0282    3.1322    2.3792 H   0  0  0  0  0  0  0  0  0  0  0  0
   -9.4377    3.0146    1.7006 H   0  0  0  0  0  0  0  0  0  0  0  0
  -10.6609   -1.1282   -2.7557 H   0  0  0  0  0  0  0  0  0  0  0  0
  -12.1635   -0.0195   -4.0278 H   0  0  0  0  0  0  0  0  0  0  0  0
  -11.0580    1.2906   -3.6294 H   0  0  0  0  0  0  0  0  0  0  0  0
  -13.5309    1.8191   -3.4926 H   0  0  0  0  0  0  0  0  0  0  0  0
  -12.6579    2.2052   -2.0152 H   0  0  0  0  0  0  0  0  0  0  0  0
  -14.0942   -1.1521   -0.7652 H   0  0  0  0  0  0  0  0  0  0  0  0
    7.9725   -0.0702   -3.3509 H   0  0  0  0  0  0  0  0  0  0  0  0
    9.6549    0.9178   -4.8388 H   0  0  0  0  0  0  0  0  0  0  0  0
  1  2  1  0
  2  3  2  0
  2  4  2  0
  2  5  1  0
  5  6  1  0
  6  7  2  0
  7  8  1  0
  8  9  1  0
  9 10  1  0
 10 11  2  0
 11 12  1  0
 12 13  2  0
 13 14  1  0
 14 15  1  0
 15 16  1  0
 16 17  2  0
 17 18  1  0
 18 19  1  0
 19 20  1  0
 19 21  1  0
 19 22  1  0
 18 23  2  0
 23 24  1  0
 24 25  1  0
 25 26  1  0
 26 27  1  0
 27 28  1  0
 28 29  1  0
 29 30  1  0
 30 31  1  0
 31 32  1  0
 32 33  1  0
 33 34  1  0
 34 35  1  0
 35 36  1  0
 36 37  1  0
 37 38  2  0
 38 39  1  0
 39 40  2  0
 40 41  1  0
 41 42  2  0
 42 43  1  0
 43 44  2  0
 43 45  1  0
 45 46  1  0
 46 47  1  0
 47 48  1  0
 48 49  1  0
 49 50  2  0
 49 51  1  0
 51 52  1  0
 52 53  2  0
 45 54  1  0
 54 55  2  0
 14 56  2  0
  8 57  2  0
 57 58  1  0
 58  5  2  0
 56 10  1  0
 24 15  2  0
 42 37  1  0
 52 46  1  0
 54 41  1  0
  1 59  1  0
  1 60  1  0
  1 61  1  0
  6 62  1  0
  7 63  1  0
  9 64  1  0
 12 65  1  0
 13 66  1  0
 16 67  1  0
 17 68  1  0
 23 69  1  0
 25 70  1  0
 25 71  1  0
 26 72  1  0
 26 73  1  0
 28 74  1  0
 28 75  1  0
 29 76  1  0
 29 77  1  0
 31 78  1  0
 31 79  1  0
 32 80  1  0
 32 81  1  0
 34 82  1  0
 34 83  1  0
 35 84  1  0
 35 85  1  0
 36 86  1  0
 38 87  1  0
 39 88  1  0
 40 89  1  0
 46 90  1  0
 47 91  1  0
 47 92  1  0
 48 93  1  0
 48 94  1  0
 51 95  1  0
 57 96  1  0
 58 97  1  0
M  END
$$$$
