
     RDKit          3D

 91 96  0  0  0  0  0  0  0  0999 V2000
   10.1891   -1.9032   -3.6966 C   0  0  0  0  0  0  0  0  0  0  0  0
   10.8114   -0.9670   -2.3242 S   0  0  0  0  0  0  0  0  0  0  0  0
   11.8646   -0.0954   -2.8101 O   0  0  0  0  0  0  0  0  0  0  0  0
   11.0536   -1.8830   -1.2272 O   0  0  0  0  0  0  0  0  0  0  0  0
    9.4336    0.0585   -1.8745 C   0  0  0  0  0  0  0  0  0  0  0  0
    8.5509   -0.3610   -0.8812 C   0  0  0  0  0  0  0  0  0  0  0  0
    7.4673    0.4529   -0.5311 C   0  0  0  0  0  0  0  0  0  0  0  0
    7.2619    1.6956   -1.1429 C   0  0  0  0  0  0  0  0  0  0  0  0
    6.1830    2.5399   -0.8554 N   0  0  0  0  0  0  0  0  0  0  0  0
    5.1235    2.4738    0.0465 C   0  0  0  0  0  0  0  0  0  0  0  0
    4.3791    3.5889    0.1318 N   0  0  0  0  0  0  0  0  0  0  0  0
    3.3595    3.5889    1.0100 C   0  0  0  0  0  0  0  0  0  0  0  0
    3.0382    2.5132    1.7953 C   0  0  0  0  0  0  0  0  0  0  0  0
    3.8340    1.4020    1.6304 C   0  0  0  0  0  0  0  0  0  0  0  0
    3.6356    0.1763    2.4152 C   0  0  0  0  0  0  0  0  0  0  0  0
    4.5991   -0.1523    3.3899 C   0  0  0  0  0  0  0  0  0  0  0  0
    4.4709   -1.2851    4.1958 C   0  0  0  0  0  0  0  0  0  0  0  0
    3.3676   -2.1317    4.0468 C   0  0  0  0  0  0  0  0  0  0  0  0
    3.2019   -3.3607    4.9071 C   0  0  0  0  0  0  0  0  0  0  0  0
    1.9463   -3.4742    5.4207 F   0  0  0  0  0  0  0  0  0  0  0  0
    4.0435   -3.3878    5.9782 F   0  0  0  0  0  0  0  0  0  0  0  0
    3.4304   -4.5123    4.2199 F   0  0  0  0  0  0  0  0  0  0  0  0
    2.4157   -1.8326    3.0588 C   0  0  0  0  0  0  0  0  0  0  0  0
    2.5331   -0.6911    2.2382 C   0  0  0  0  0  0  0  0  0  0  0  0
    1.4755   -0.4769    1.1722 C   0  0  0  0  0  0  0  0  0  0  0  0
    1.9813   -0.7263   -0.2535 C   0  0  0  0  0  0  0  0  0  0  0  0
    0.8778   -0.9903   -1.1209 O   0  0  0  0  0  0  0  0  0  0  0  0
    0.5250    0.0718   -2.0100 C   0  0  0  0  0  0  0  0  0  0  0  0
   -0.0209    1.3255   -1.3212 C   0  0  0  0  0  0  0  0  0  0  0  0
   -1.1174    0.9730   -0.4793 O   0  0  0  0  0  0  0  0  0  0  0  0
   -1.7532    2.1114    0.1009 C   0  0  0  0  0  0  0  0  0  0  0  0
   -2.7457    1.6812    1.1919 C   0  0  0  0  0  0  0  0  0  0  0  0
   -4.0564    1.2934    0.6698 N   0  0  0  0  0  0  0  0  0  0  0  0
   -4.3693    0.0159    0.2292 C   0  0  0  0  0  0  0  0  0  0  0  0
   -3.4747   -1.0683    0.2417 C   0  0  0  0  0  0  0  0  0  0  0  0
   -3.8559   -2.3709   -0.1460 C   0  0  0  0  0  0  0  0  0  0  0  0
   -5.1654   -2.6414   -0.5280 C   0  0  0  0  0  0  0  0  0  0  0  0
   -6.0494   -1.5829   -0.5066 C   0  0  0  0  0  0  0  0  0  0  0  0
   -5.6780   -0.2882   -0.1338 C   0  0  0  0  0  0  0  0  0  0  0  0
   -6.8892    0.5874   -0.1418 C   0  0  0  0  0  0  0  0  0  0  0  0
   -7.9309   -0.2823   -0.6718 N   0  0  0  0  0  0  0  0  0  0  0  0
   -9.3359    0.1116   -0.6437 C   0  0  0  0  0  0  0  0  0  0  0  0
  -10.1439   -0.4213   -1.8276 C   0  0  0  0  0  0  0  0  0  0  0  0
  -11.5695    0.1004   -1.7419 C   0  0  0  0  0  0  0  0  0  0  0  0
  -12.2119   -0.2676   -0.4243 C   0  0  0  0  0  0  0  0  0  0  0  0
  -13.4300   -0.3116   -0.2812 O   0  0  0  0  0  0  0  0  0  0  0  0
  -11.3672   -0.4672    0.6395 N   0  0  0  0  0  0  0  0  0  0  0  0
  -10.0046   -0.2798    0.6844 C   0  0  0  0  0  0  0  0  0  0  0  0
   -9.4109   -0.3233    1.7609 O   0  0  0  0  0  0  0  0  0  0  0  0
   -7.4871   -1.5874   -0.8023 C   0  0  0  0  0  0  0  0  0  0  0  0
   -8.1334   -2.5784   -1.0836 O   0  0  0  0  0  0  0  0  0  0  0  0
    4.8712    1.3746    0.7669 N   0  0  0  0  0  0  0  0  0  0  0  0
    8.1737    2.0945   -2.1377 C   0  0  0  0  0  0  0  0  0  0  0  0
    9.2593    1.2915   -2.4993 C   0  0  0  0  0  0  0  0  0  0  0  0
    9.3110   -2.4693   -3.3780 H   0  0  0  0  0  0  0  0  0  0  0  0
    9.9387   -1.2183   -4.5088 H   0  0  0  0  0  0  0  0  0  0  0  0
   10.9707   -2.5929   -4.0232 H   0  0  0  0  0  0  0  0  0  0  0  0
    8.6897   -1.3112   -0.3699 H   0  0  0  0  0  0  0  0  0  0  0  0
    6.7973    0.0941    0.2445 H   0  0  0  0  0  0  0  0  0  0  0  0
    6.2160    3.4717   -1.2442 H   0  0  0  0  0  0  0  0  0  0  0  0
    2.7974    4.5165    1.0673 H   0  0  0  0  0  0  0  0  0  0  0  0
    2.2222    2.5413    2.5047 H   0  0  0  0  0  0  0  0  0  0  0  0
    5.4713    0.4889    3.5239 H   0  0  0  0  0  0  0  0  0  0  0  0
    5.2399   -1.5019    4.9363 H   0  0  0  0  0  0  0  0  0  0  0  0
    1.5667   -2.5062    2.9303 H   0  0  0  0  0  0  0  0  0  0  0  0
    0.6208   -1.1375    1.3653 H   0  0  0  0  0  0  0  0  0  0  0  0
    1.0597    0.5312    1.2667 H   0  0  0  0  0  0  0  0  0  0  0  0
    2.6076   -1.6272   -0.2692 H   0  0  0  0  0  0  0  0  0  0  0  0
    2.5945    0.0993   -0.6284 H   0  0  0  0  0  0  0  0  0  0  0  0
   -0.2560   -0.3332   -2.6645 H   0  0  0  0  0  0  0  0  0  0  0  0
    1.3872    0.3182   -2.6412 H   0  0  0  0  0  0  0  0  0  0  0  0
   -0.3526    2.0430   -2.0805 H   0  0  0  0  0  0  0  0  0  0  0  0
    0.7573    1.7962   -0.7126 H   0  0  0  0  0  0  0  0  0  0  0  0
   -0.9853    2.7437    0.5619 H   0  0  0  0  0  0  0  0  0  0  0  0
   -2.2586    2.6858   -0.6836 H   0  0  0  0  0  0  0  0  0  0  0  0
   -2.3223    0.8978    1.8310 H   0  0  0  0  0  0  0  0  0  0  0  0
   -2.9228    2.5490    1.8398 H   0  0  0  0  0  0  0  0  0  0  0  0
   -4.5508    2.0374    0.1876 H   0  0  0  0  0  0  0  0  0  0  0  0
   -2.4387   -0.9263    0.5371 H   0  0  0  0  0  0  0  0  0  0  0  0
   -3.1145   -3.1674   -0.1308 H   0  0  0  0  0  0  0  0  0  0  0  0
   -5.4874   -3.6370   -0.8121 H   0  0  0  0  0  0  0  0  0  0  0  0
   -6.7752    1.4464   -0.8095 H   0  0  0  0  0  0  0  0  0  0  0  0
   -7.1555    0.9025    0.8708 H   0  0  0  0  0  0  0  0  0  0  0  0
   -9.3513    1.2099   -0.6866 H   0  0  0  0  0  0  0  0  0  0  0  0
  -10.1769   -1.5167   -1.8263 H   0  0  0  0  0  0  0  0  0  0  0  0
   -9.6869   -0.1099   -2.7743 H   0  0  0  0  0  0  0  0  0  0  0  0
  -12.1678   -0.3338   -2.5507 H   0  0  0  0  0  0  0  0  0  0  0  0
  -11.5954    1.1906   -1.8422 H   0  0  0  0  0  0  0  0  0  0  0  0
  -11.8099   -0.6848    1.5221 H   0  0  0  0  0  0  0  0  0  0  0  0
    8.0471    3.0515   -2.6397 H   0  0  0  0  0  0  0  0  0  0  0  0
    9.9561    1.6377   -3.2594 H   0  0  0  0  0  0  0  0  0  0  0  0
  1  2  1  0
  2  3  2  0
  2  4  2  0
  2  5  1  0
  5  6  1  0
  6  7  2  0
  7  8  1  0
  8  9  1  0
  9 10  1  0
 10 11  2  0
 11 12  1  0
 12 13  2  0
 13 14  1  0
 14 15  1  0
 15 16  1  0
 16 17  2  0
 17 18  1  0
 18 19  1  0
 19 20  1  0
 19 21  1  0
 19 22  1  0
 18 23  2  0
 23 24  1  0
 24 25  1  0
 25 26  1  0
 26 27  1  0
 27 28  1  0
 28 29  1  0
 29 30  1  0
 30 31  1  0
 31 32  1  0
 32 33  1  0
 33 34  1  0
 34 35  2  0
 35 36  1  0
 36 37  2  0
 37 38  1  0
 38 39  2  0
 39 40  1  0
 40 41  1  0
 41 42  1  0
 42 43  1  0
 43 44  1  0
 44 45  1  0
 45 46  2  0
 45 47  1  0
 47 48  1  0
 48 49  2  0
 41 50  1  0
 50 51  2  0
 14 52  2  0
  8 53  2  0
 53 54  1  0
 54  5  2  0
 52 10  1  0
 24 15  2  0
 39 34  1  0
 48 42  1  0
 50 38  1  0
  1 55  1  0
  1 56  1  0
  1 57  1  0
  6 58  1  0
  7 59  1  0
  9 60  1  0
 12 61  1  0
 13 62  1  0
 16 63  1  0
 17 64  1  0
 23 65  1  0
 25 66  1  0
 25 67  1  0
 26 68  1  0
 26 69  1  0
 28 70  1  0
 28 71  1  0
 29 72  1  0
 29 73  1  0
 31 74  1  0
 31 75  1  0
 32 76  1  0
 32 77  1  0
 33 78  1  0
 35 79  1  0
 36 80  1  0
 37 81  1  0
 40 82  1  0
 40 83  1  0
 42 84  1  0
 43 85  1  0
 43 86  1  0
 44 87  1  0
 44 88  1  0
 47 89  1  0
 53 90  1  0
 54 91  1  0
M  END
$$$$
