
     RDKit          3D

 90 95  0  0  0  0  0  0  0  0999 V2000
   11.1919    3.7033    3.2907 C   0  0  0  0  0  0  0  0  0  0  0  0
   10.2622    4.4992    2.0062 S   0  0  0  0  0  0  0  0  0  0  0  0
    9.6520    5.6902    2.5654 O   0  0  0  0  0  0  0  0  0  0  0  0
   11.1066    4.5744    0.8266 O   0  0  0  0  0  0  0  0  0  0  0  0
    8.9527    3.3496    1.6659 C   0  0  0  0  0  0  0  0  0  0  0  0
    8.9818    2.5810    0.5060 C   0  0  0  0  0  0  0  0  0  0  0  0
    7.9308    1.6917    0.2407 C   0  0  0  0  0  0  0  0  0  0  0  0
    6.8482    1.5526    1.1190 C   0  0  0  0  0  0  0  0  0  0  0  0
    5.7545    0.7092    0.8846 N   0  0  0  0  0  0  0  0  0  0  0  0
    5.4463   -0.2146   -0.1118 C   0  0  0  0  0  0  0  0  0  0  0  0
    6.1932   -0.3449   -1.2173 N   0  0  0  0  0  0  0  0  0  0  0  0
    5.8176   -1.2701   -2.1149 C   0  0  0  0  0  0  0  0  0  0  0  0
    4.7214   -2.0754   -1.9498 C   0  0  0  0  0  0  0  0  0  0  0  0
    3.9981   -1.8782   -0.7917 C   0  0  0  0  0  0  0  0  0  0  0  0
    2.8030   -2.6862   -0.4819 C   0  0  0  0  0  0  0  0  0  0  0  0
    2.9552   -4.0838   -0.3641 C   0  0  0  0  0  0  0  0  0  0  0  0
    1.8705   -4.9172   -0.0815 C   0  0  0  0  0  0  0  0  0  0  0  0
    0.5924   -4.3793    0.0955 C   0  0  0  0  0  0  0  0  0  0  0  0
   -0.5829   -5.2832    0.3824 C   0  0  0  0  0  0  0  0  0  0  0  0
   -1.5621   -4.6703    1.1029 F   0  0  0  0  0  0  0  0  0  0  0  0
   -1.1751   -5.7355   -0.7560 F   0  0  0  0  0  0  0  0  0  0  0  0
   -0.2406   -6.3960    1.0931 F   0  0  0  0  0  0  0  0  0  0  0  0
    0.4224   -2.9908   -0.0226 C   0  0  0  0  0  0  0  0  0  0  0  0
    1.5097   -2.1318   -0.3037 C   0  0  0  0  0  0  0  0  0  0  0  0
    1.2266   -0.6401   -0.3892 C   0  0  0  0  0  0  0  0  0  0  0  0
    1.3368   -0.0227   -1.7856 C   0  0  0  0  0  0  0  0  0  0  0  0
    0.1769   -0.2827   -2.5801 O   0  0  0  0  0  0  0  0  0  0  0  0
    0.3468   -1.3836   -3.4774 C   0  0  0  0  0  0  0  0  0  0  0  0
   -0.8447   -1.4563   -4.4335 C   0  0  0  0  0  0  0  0  0  0  0  0
   -1.9955   -2.0996   -3.8815 O   0  0  0  0  0  0  0  0  0  0  0  0
   -2.6697   -1.3924   -2.8357 C   0  0  0  0  0  0  0  0  0  0  0  0
   -3.2261   -0.0258   -3.2646 C   0  0  0  0  0  0  0  0  0  0  0  0
   -4.2719    0.4772   -2.3731 N   0  0  0  0  0  0  0  0  0  0  0  0
   -4.0216    0.8387   -1.0553 C   0  0  0  0  0  0  0  0  0  0  0  0
   -2.7558    1.2262   -0.5809 C   0  0  0  0  0  0  0  0  0  0  0  0
   -2.5501    1.6596    0.7497 C   0  0  0  0  0  0  0  0  0  0  0  0
   -3.6130    1.7466    1.6463 C   0  0  0  0  0  0  0  0  0  0  0  0
   -4.8581    1.4008    1.1660 C   0  0  0  0  0  0  0  0  0  0  0  0
   -5.0586    0.9707   -0.1370 C   0  0  0  0  0  0  0  0  0  0  0  0
   -6.4932    0.6971   -0.2754 C   0  0  0  0  0  0  0  0  0  0  0  0
   -7.0178    0.2339   -1.2721 O   0  0  0  0  0  0  0  0  0  0  0  0
   -7.0844    1.0411    0.9124 N   0  0  0  0  0  0  0  0  0  0  0  0
   -8.4898    0.7825    1.2006 C   0  0  0  0  0  0  0  0  0  0  0  0
   -9.1872    1.9047    1.9683 C   0  0  0  0  0  0  0  0  0  0  0  0
  -10.6410    1.5278    2.2170 C   0  0  0  0  0  0  0  0  0  0  0  0
  -10.7441    0.2106    2.9500 C   0  0  0  0  0  0  0  0  0  0  0  0
  -11.6514   -0.0328    3.7385 O   0  0  0  0  0  0  0  0  0  0  0  0
   -9.7897   -0.7305    2.6559 N   0  0  0  0  0  0  0  0  0  0  0  0
   -8.6162   -0.5457    1.9582 C   0  0  0  0  0  0  0  0  0  0  0  0
   -7.7741   -1.4382    1.9157 O   0  0  0  0  0  0  0  0  0  0  0  0
   -6.1518    1.4095    1.8413 C   0  0  0  0  0  0  0  0  0  0  0  0
   -6.3013    1.6763    3.0181 O   0  0  0  0  0  0  0  0  0  0  0  0
    4.3474   -0.9510    0.1247 N   0  0  0  0  0  0  0  0  0  0  0  0
    6.8331    2.3617    2.2696 C   0  0  0  0  0  0  0  0  0  0  0  0
    7.8769    3.2533    2.5488 C   0  0  0  0  0  0  0  0  0  0  0  0
   10.5470    3.5575    4.1622 H   0  0  0  0  0  0  0  0  0  0  0  0
   12.0266    4.3576    3.5521 H   0  0  0  0  0  0  0  0  0  0  0  0
   11.5727    2.7471    2.9176 H   0  0  0  0  0  0  0  0  0  0  0  0
    9.7947    2.6710   -0.2113 H   0  0  0  0  0  0  0  0  0  0  0  0
    7.9797    1.1233   -0.6843 H   0  0  0  0  0  0  0  0  0  0  0  0
    5.1117    0.5779    1.6516 H   0  0  0  0  0  0  0  0  0  0  0  0
    6.4492   -1.3487   -2.9955 H   0  0  0  0  0  0  0  0  0  0  0  0
    4.4466   -2.8159   -2.6899 H   0  0  0  0  0  0  0  0  0  0  0  0
    3.9430   -4.5332   -0.4712 H   0  0  0  0  0  0  0  0  0  0  0  0
    2.0368   -5.9898    0.0128 H   0  0  0  0  0  0  0  0  0  0  0  0
   -0.5780   -2.5691    0.1051 H   0  0  0  0  0  0  0  0  0  0  0  0
    1.9083   -0.1205    0.2944 H   0  0  0  0  0  0  0  0  0  0  0  0
    0.2165   -0.4447   -0.0041 H   0  0  0  0  0  0  0  0  0  0  0  0
    1.3685    1.0672   -1.6665 H   0  0  0  0  0  0  0  0  0  0  0  0
    2.2537   -0.3018   -2.3152 H   0  0  0  0  0  0  0  0  0  0  0  0
    0.4393   -2.3174   -2.9161 H   0  0  0  0  0  0  0  0  0  0  0  0
    1.2580   -1.2184   -4.0688 H   0  0  0  0  0  0  0  0  0  0  0  0
   -0.5538   -2.0659   -5.2951 H   0  0  0  0  0  0  0  0  0  0  0  0
   -1.1092   -0.4664   -4.8175 H   0  0  0  0  0  0  0  0  0  0  0  0
   -2.0185   -1.3136   -1.9598 H   0  0  0  0  0  0  0  0  0  0  0  0
   -3.5045   -2.0357   -2.5313 H   0  0  0  0  0  0  0  0  0  0  0  0
   -3.6612   -0.1232   -4.2666 H   0  0  0  0  0  0  0  0  0  0  0  0
   -2.4254    0.7130   -3.3723 H   0  0  0  0  0  0  0  0  0  0  0  0
   -5.1784    0.0153   -2.4999 H   0  0  0  0  0  0  0  0  0  0  0  0
   -1.8913    1.2087   -1.2429 H   0  0  0  0  0  0  0  0  0  0  0  0
   -1.5483    1.9395    1.0691 H   0  0  0  0  0  0  0  0  0  0  0  0
   -3.4742    2.0767    2.6713 H   0  0  0  0  0  0  0  0  0  0  0  0
   -9.0065    0.6337    0.2424 H   0  0  0  0  0  0  0  0  0  0  0  0
   -8.7076    2.0875    2.9360 H   0  0  0  0  0  0  0  0  0  0  0  0
   -9.1372    2.8402    1.3985 H   0  0  0  0  0  0  0  0  0  0  0  0
  -11.1918    1.4427    1.2748 H   0  0  0  0  0  0  0  0  0  0  0  0
  -11.1174    2.3028    2.8292 H   0  0  0  0  0  0  0  0  0  0  0  0
   -9.8559   -1.5985    3.1694 H   0  0  0  0  0  0  0  0  0  0  0  0
    5.9942    2.3109    2.9604 H   0  0  0  0  0  0  0  0  0  0  0  0
    7.8255    3.8794    3.4376 H   0  0  0  0  0  0  0  0  0  0  0  0
  1  2  1  0
  2  3  2  0
  2  4  2  0
  2  5  1  0
  5  6  1  0
  6  7  2  0
  7  8  1  0
  8  9  1  0
  9 10  1  0
 10 11  2  0
 11 12  1  0
 12 13  2  0
 13 14  1  0
 14 15  1  0
 15 16  1  0
 16 17  2  0
 17 18  1  0
 18 19  1  0
 19 20  1  0
 19 21  1  0
 19 22  1  0
 18 23  2  0
 23 24  1  0
 24 25  1  0
 25 26  1  0
 26 27  1  0
 27 28  1  0
 28 29  1  0
 29 30  1  0
 30 31  1  0
 31 32  1  0
 32 33  1  0
 33 34  1  0
 34 35  2  0
 35 36  1  0
 36 37  2  0
 37 38  1  0
 38 39  2  0
 39 40  1  0
 40 41  2  0
 40 42  1  0
 42 43  1  0
 43 44  1  0
 44 45  1  0
 45 46  1  0
 46 47  2  0
 46 48  1  0
 48 49  1  0
 49 50  2  0
 42 51  1  0
 51 52  2  0
 14 53  2  0
  8 54  2  0
 54 55  1  0
 55  5  2  0
 53 10  1  0
 24 15  2  0
 39 34  1  0
 49 43  1  0
 51 38  1  0
  1 56  1  0
  1 57  1  0
  1 58  1  0
  6 59  1  0
  7 60  1  0
  9 61  1  0
 12 62  1  0
 13 63  1  0
 16 64  1  0
 17 65  1  0
 23 66  1  0
 25 67  1  0
 25 68  1  0
 26 69  1  0
 26 70  1  0
 28 71  1  0
 28 72  1  0
 29 73  1  0
 29 74  1  0
 31 75  1  0
 31 76  1  0
 32 77  1  0
 32 78  1  0
 33 79  1  0
 35 80  1  0
 36 81  1  0
 37 82  1  0
 43 83  1  0
 44 84  1  0
 44 85  1  0
 45 86  1  0
 45 87  1  0
 48 88  1  0
 54 89  1  0
 55 90  1  0
M  END
$$$$
