
     RDKit          3D

 41 43  0  0  0  0  0  0  0  0999 V2000
   -3.9921   -0.1760   -0.7293 C   0  0  0  0  0  0  0  0  0  0  0  0
   -5.2958   -0.6479   -0.9199 C   0  0  0  0  0  0  0  0  0  0  0  0
   -6.2788   -0.4325    0.0528 C   0  0  0  0  0  0  0  0  0  0  0  0
   -7.6798   -0.9602   -0.1369 C   0  0  0  0  0  0  0  0  0  0  0  0
   -7.8320   -2.2173    0.3627 F   0  0  0  0  0  0  0  0  0  0  0  0
   -8.6244   -0.1957    0.4797 F   0  0  0  0  0  0  0  0  0  0  0  0
   -8.0547   -1.0281   -1.4448 F   0  0  0  0  0  0  0  0  0  0  0  0
   -5.9238    0.2479    1.2245 C   0  0  0  0  0  0  0  0  0  0  0  0
   -4.6178    0.7189    1.4096 C   0  0  0  0  0  0  0  0  0  0  0  0
   -3.6240    0.5238    0.4342 C   0  0  0  0  0  0  0  0  0  0  0  0
   -2.2418    1.0158    0.6119 C   0  0  0  0  0  0  0  0  0  0  0  0
   -1.9440    2.1896    1.2723 C   0  0  0  0  0  0  0  0  0  0  0  0
   -0.6135    2.5123    1.3546 C   0  0  0  0  0  0  0  0  0  0  0  0
    0.3668    1.7548    0.8370 N   0  0  0  0  0  0  0  0  0  0  0  0
    0.0058    0.6327    0.2022 C   0  0  0  0  0  0  0  0  0  0  0  0
    0.9388   -0.2285   -0.3682 N   0  0  0  0  0  0  0  0  0  0  0  0
    2.3278   -0.1960   -0.5235 C   0  0  0  0  0  0  0  0  0  0  0  0
    2.9605   -1.3029   -1.1181 C   0  0  0  0  0  0  0  0  0  0  0  0
    4.3476   -1.3485   -1.2892 C   0  0  0  0  0  0  0  0  0  0  0  0
    5.1243   -0.2789   -0.8492 C   0  0  0  0  0  0  0  0  0  0  0  0
    6.8862   -0.3183   -1.0632 S   0  0  0  0  0  0  0  0  0  0  0  0
    7.4665   -0.9711    0.4806 C   0  0  0  0  0  0  0  0  0  0  0  0
    7.1816   -1.2890   -2.1002 O   0  0  0  0  0  0  0  0  0  0  0  0
    7.3457    1.0529   -1.1760 O   0  0  0  0  0  0  0  0  0  0  0  0
    4.5251    0.8373   -0.2684 C   0  0  0  0  0  0  0  0  0  0  0  0
    3.1356    0.8673   -0.1023 C   0  0  0  0  0  0  0  0  0  0  0  0
   -1.2721    0.2416    0.0724 N   0  0  0  0  0  0  0  0  0  0  0  0
   -3.2515   -0.3575   -1.5079 H   0  0  0  0  0  0  0  0  0  0  0  0
   -5.5369   -1.1852   -1.8362 H   0  0  0  0  0  0  0  0  0  0  0  0
   -6.6648    0.4135    2.0062 H   0  0  0  0  0  0  0  0  0  0  0  0
   -4.3842    1.2254    2.3440 H   0  0  0  0  0  0  0  0  0  0  0  0
   -2.7005    2.8385    1.6909 H   0  0  0  0  0  0  0  0  0  0  0  0
   -0.2844    3.4196    1.8524 H   0  0  0  0  0  0  0  0  0  0  0  0
    0.4469   -1.0066   -0.7822 H   0  0  0  0  0  0  0  0  0  0  0  0
    2.3688   -2.1490   -1.4621 H   0  0  0  0  0  0  0  0  0  0  0  0
    4.8022   -2.2137   -1.7666 H   0  0  0  0  0  0  0  0  0  0  0  0
    7.0434   -1.9665    0.6285 H   0  0  0  0  0  0  0  0  0  0  0  0
    7.1692   -0.2986    1.2874 H   0  0  0  0  0  0  0  0  0  0  0  0
    8.5558   -1.0344    0.4335 H   0  0  0  0  0  0  0  0  0  0  0  0
    5.1191    1.6901    0.0527 H   0  0  0  0  0  0  0  0  0  0  0  0
    2.6991    1.7510    0.3542 H   0  0  0  0  0  0  0  0  0  0  0  0
  1  2  2  0
  2  3  1  0
  3  4  1  0
  4  5  1  0
  4  6  1  0
  4  7  1  0
  3  8  2  0
  8  9  1  0
  9 10  2  0
 10 11  1  0
 11 12  1  0
 12 13  2  0
 13 14  1  0
 14 15  2  0
 15 16  1  0
 16 17  1  0
 17 18  1  0
 18 19  2  0
 19 20  1  0
 20 21  1  0
 21 22  1  0
 21 23  2  0
 21 24  2  0
 20 25  2  0
 25 26  1  0
 15 27  1  0
 10  1  1  0
 27 11  2  0
 26 17  2  0
  1 28  1  0
  2 29  1  0
  8 30  1  0
  9 31  1  0
 12 32  1  0
 13 33  1  0
 16 34  1  0
 18 35  1  0
 19 36  1  0
 22 37  1  0
 22 38  1  0
 22 39  1  0
 25 40  1  0
 26 41  1  0
M  END
$$$$
