
     RDKit          3D

 41 43  0  0  0  0  0  0  0  0999 V2000
   -3.7354   -2.8175    2.0075 I   0  0  0  0  0  0  0  0  0  0  0  0
   -4.4207   -1.2426    0.7880 C   0  0  0  0  0  0  0  0  0  0  0  0
   -5.7065   -1.3906    0.2441 C   0  0  0  0  0  0  0  0  0  0  0  0
   -6.2403   -0.4172   -0.6140 C   0  0  0  0  0  0  0  0  0  0  0  0
   -7.6314   -0.5755   -1.1778 C   0  0  0  0  0  0  0  0  0  0  0  0
   -7.9528   -1.8722   -1.4419 F   0  0  0  0  0  0  0  0  0  0  0  0
   -7.8182    0.0999   -2.3454 F   0  0  0  0  0  0  0  0  0  0  0  0
   -8.5869   -0.1189   -0.3228 F   0  0  0  0  0  0  0  0  0  0  0  0
   -5.4699    0.7123   -0.9113 C   0  0  0  0  0  0  0  0  0  0  0  0
   -4.1899    0.8584   -0.3685 C   0  0  0  0  0  0  0  0  0  0  0  0
   -3.6410   -0.1079    0.4972 C   0  0  0  0  0  0  0  0  0  0  0  0
   -2.2951    0.1248    1.0339 C   0  0  0  0  0  0  0  0  0  0  0  0
   -2.0809    0.4902    2.3451 C   0  0  0  0  0  0  0  0  0  0  0  0
   -0.7723    0.6973    2.6937 C   0  0  0  0  0  0  0  0  0  0  0  0
    0.2526    0.5694    1.8335 N   0  0  0  0  0  0  0  0  0  0  0  0
   -0.0377    0.2248    0.5712 C   0  0  0  0  0  0  0  0  0  0  0  0
    0.9479    0.0639   -0.3981 N   0  0  0  0  0  0  0  0  0  0  0  0
    2.3356    0.2326   -0.4150 C   0  0  0  0  0  0  0  0  0  0  0  0
    3.0801    0.6853    0.6810 C   0  0  0  0  0  0  0  0  0  0  0  0
    4.4714    0.8211    0.6108 C   0  0  0  0  0  0  0  0  0  0  0  0
    5.1366    0.4853   -0.5669 C   0  0  0  0  0  0  0  0  0  0  0  0
    6.9011    0.6589   -0.6583 S   0  0  0  0  0  0  0  0  0  0  0  0
    7.4935   -0.8835   -0.0134 C   0  0  0  0  0  0  0  0  0  0  0  0
    7.2646    0.7275   -2.0613 O   0  0  0  0  0  0  0  0  0  0  0  0
    7.2863    1.7123    0.2614 O   0  0  0  0  0  0  0  0  0  0  0  0
    4.4236    0.0438   -1.6793 C   0  0  0  0  0  0  0  0  0  0  0  0
    3.0338   -0.0848   -1.5943 C   0  0  0  0  0  0  0  0  0  0  0  0
   -1.2895    0.0032    0.1404 N   0  0  0  0  0  0  0  0  0  0  0  0
   -6.3025   -2.2732    0.4765 H   0  0  0  0  0  0  0  0  0  0  0  0
   -5.8582    1.4853   -1.5739 H   0  0  0  0  0  0  0  0  0  0  0  0
   -3.6063    1.7423   -0.6278 H   0  0  0  0  0  0  0  0  0  0  0  0
   -2.8855    0.6084    3.0578 H   0  0  0  0  0  0  0  0  0  0  0  0
   -0.4967    0.9830    3.7045 H   0  0  0  0  0  0  0  0  0  0  0  0
    0.5051   -0.2030   -1.2653 H   0  0  0  0  0  0  0  0  0  0  0  0
    2.5914    0.9542    1.6131 H   0  0  0  0  0  0  0  0  0  0  0  0
    5.0153    1.1940    1.4760 H   0  0  0  0  0  0  0  0  0  0  0  0
    7.1232   -1.6976   -0.6394 H   0  0  0  0  0  0  0  0  0  0  0  0
    8.5852   -0.8638   -0.0380 H   0  0  0  0  0  0  0  0  0  0  0  0
    7.1482   -0.9969    1.0160 H   0  0  0  0  0  0  0  0  0  0  0  0
    4.9298   -0.1973   -2.6114 H   0  0  0  0  0  0  0  0  0  0  0  0
    2.4922   -0.4357   -2.4705 H   0  0  0  0  0  0  0  0  0  0  0  0
  1  2  1  0
  2  3  1  0
  3  4  2  0
  4  5  1  0
  5  6  1  0
  5  7  1  0
  5  8  1  0
  4  9  1  0
  9 10  2  0
 10 11  1  0
 11 12  1  0
 12 13  1  0
 13 14  2  0
 14 15  1  0
 15 16  2  0
 16 17  1  0
 17 18  1  0
 18 19  1  0
 19 20  2  0
 20 21  1  0
 21 22  1  0
 22 23  1  0
 22 24  2  0
 22 25  2  0
 21 26  2  0
 26 27  1  0
 16 28  1  0
 11  2  2  0
 28 12  2  0
 27 18  2  0
  3 29  1  0
  9 30  1  0
 10 31  1  0
 13 32  1  0
 14 33  1  0
 17 34  1  0
 19 35  1  0
 20 36  1  0
 23 37  1  0
 23 38  1  0
 23 39  1  0
 26 40  1  0
 27 41  1  0
M  END
$$$$
