
     RDKit          3D

 70 73  0  0  0  0  0  0  0  0999 V2000
   -2.6202   -1.5535    4.6727 C   0  0  0  0  0  0  0  0  0  0  0  0
   -1.3956   -1.0066    4.2018 O   0  0  0  0  0  0  0  0  0  0  0  0
   -1.3992   -0.4386    2.9453 C   0  0  0  0  0  0  0  0  0  0  0  0
   -2.5464   -0.2320    2.1737 C   0  0  0  0  0  0  0  0  0  0  0  0
   -2.4493    0.3581    0.9063 C   0  0  0  0  0  0  0  0  0  0  0  0
   -3.5963    0.6094    0.0841 N   0  0  0  0  0  0  0  0  0  0  0  0
   -4.3141    1.7856    0.6009 C   0  0  0  0  0  0  0  0  0  0  0  0
   -4.4383   -0.5992   -0.0950 C   0  0  0  0  0  0  0  0  0  0  0  0
   -5.1855   -0.5373   -1.4493 C   0  0  0  0  0  0  0  0  0  0  0  0
   -5.9643   -1.7532   -1.7627 N   0  0  0  0  0  0  0  0  0  0  0  0
   -7.1441   -1.8817   -0.9050 C   0  0  0  0  0  0  0  0  0  0  0  0
   -6.3748   -1.7366   -3.1699 C   0  0  0  0  0  0  0  0  0  0  0  0
   -1.1801    0.7600    0.4262 C   0  0  0  0  0  0  0  0  0  0  0  0
   -1.1844    1.3389   -0.8605 N   0  0  0  0  0  0  0  0  0  0  0  0
   -0.1638    1.9536   -1.5324 C   0  0  0  0  0  0  0  0  0  0  0  0
    0.9520    2.2336   -1.1126 O   0  0  0  0  0  0  0  0  0  0  0  0
   -0.5243    2.3943   -2.9104 C   0  0  0  0  0  0  0  0  0  0  0  0
   -1.3943    1.7715   -3.7178 C   0  0  0  0  0  0  0  0  0  0  0  0
   -0.0337    0.5484    1.1969 C   0  0  0  0  0  0  0  0  0  0  0  0
   -0.1237   -0.0541    2.4611 C   0  0  0  0  0  0  0  0  0  0  0  0
    0.9909   -0.3242    3.2761 N   0  0  0  0  0  0  0  0  0  0  0  0
    2.3635   -0.3461    3.0747 C   0  0  0  0  0  0  0  0  0  0  0  0
    3.0960   -0.6968    4.1462 N   0  0  0  0  0  0  0  0  0  0  0  0
    4.4318   -0.7369    3.9920 C   0  0  0  0  0  0  0  0  0  0  0  0
    5.0695   -0.4579    2.8114 C   0  0  0  0  0  0  0  0  0  0  0  0
    4.2442   -0.1276    1.7641 C   0  0  0  0  0  0  0  0  0  0  0  0
    4.7768    0.2116    0.4515 C   0  0  0  0  0  0  0  0  0  0  0  0
    4.1804    1.1706   -0.3446 C   0  0  0  0  0  0  0  0  0  0  0  0
    4.8840    1.2722   -1.5092 N   0  0  0  0  0  0  0  0  0  0  0  0
    4.5298    2.1522   -2.5995 C   0  0  0  0  0  0  0  0  0  0  0  0
    5.9534    0.4023   -1.4979 C   0  0  0  0  0  0  0  0  0  0  0  0
    6.9472    0.1600   -2.4602 C   0  0  0  0  0  0  0  0  0  0  0  0
    7.9053   -0.8184   -2.1848 C   0  0  0  0  0  0  0  0  0  0  0  0
    7.8698   -1.5385   -0.9961 C   0  0  0  0  0  0  0  0  0  0  0  0
    6.8755   -1.2897   -0.0430 C   0  0  0  0  0  0  0  0  0  0  0  0
    5.9019   -0.2929   -0.2816 C   0  0  0  0  0  0  0  0  0  0  0  0
    2.9021   -0.0629    1.8867 N   0  0  0  0  0  0  0  0  0  0  0  0
   -2.9976   -2.3257    3.9940 H   0  0  0  0  0  0  0  0  0  0  0  0
   -2.4244   -2.0278    5.6392 H   0  0  0  0  0  0  0  0  0  0  0  0
   -3.3650   -0.7680    4.8337 H   0  0  0  0  0  0  0  0  0  0  0  0
   -3.5246   -0.5107    2.5443 H   0  0  0  0  0  0  0  0  0  0  0  0
   -3.6562    2.6614    0.6355 H   0  0  0  0  0  0  0  0  0  0  0  0
   -5.1485    2.0403   -0.0598 H   0  0  0  0  0  0  0  0  0  0  0  0
   -4.7224    1.6086    1.6028 H   0  0  0  0  0  0  0  0  0  0  0  0
   -5.1461   -0.6913    0.7373 H   0  0  0  0  0  0  0  0  0  0  0  0
   -3.8121   -1.5022   -0.1031 H   0  0  0  0  0  0  0  0  0  0  0  0
   -5.8315    0.3487   -1.4873 H   0  0  0  0  0  0  0  0  0  0  0  0
   -4.4219   -0.3935   -2.2260 H   0  0  0  0  0  0  0  0  0  0  0  0
   -7.7144   -2.7800   -1.1685 H   0  0  0  0  0  0  0  0  0  0  0  0
   -7.8119   -1.0160   -0.9874 H   0  0  0  0  0  0  0  0  0  0  0  0
   -6.8591   -2.0025    0.1449 H   0  0  0  0  0  0  0  0  0  0  0  0
   -7.0139   -0.8772   -3.4042 H   0  0  0  0  0  0  0  0  0  0  0  0
   -6.9193   -2.6527   -3.4238 H   0  0  0  0  0  0  0  0  0  0  0  0
   -5.4981   -1.7057   -3.8270 H   0  0  0  0  0  0  0  0  0  0  0  0
   -2.1127    1.3315   -1.2722 H   0  0  0  0  0  0  0  0  0  0  0  0
    0.0428    3.2497   -3.2630 H   0  0  0  0  0  0  0  0  0  0  0  0
   -1.9271    0.8731   -3.4245 H   0  0  0  0  0  0  0  0  0  0  0  0
   -1.5650    2.1415   -4.7240 H   0  0  0  0  0  0  0  0  0  0  0  0
    0.9350    0.8469    0.8125 H   0  0  0  0  0  0  0  0  0  0  0  0
    0.7608   -0.6838    4.1928 H   0  0  0  0  0  0  0  0  0  0  0  0
    4.9922   -1.0053    4.8823 H   0  0  0  0  0  0  0  0  0  0  0  0
    6.1458   -0.4762    2.7310 H   0  0  0  0  0  0  0  0  0  0  0  0
    3.2974    1.7737   -0.1677 H   0  0  0  0  0  0  0  0  0  0  0  0
    3.6751    2.7699   -2.3120 H   0  0  0  0  0  0  0  0  0  0  0  0
    4.2694    1.5393   -3.4661 H   0  0  0  0  0  0  0  0  0  0  0  0
    5.3864    2.7935   -2.8216 H   0  0  0  0  0  0  0  0  0  0  0  0
    6.9729    0.7076   -3.3966 H   0  0  0  0  0  0  0  0  0  0  0  0
    8.6831   -1.0249   -2.9164 H   0  0  0  0  0  0  0  0  0  0  0  0
    8.6156   -2.3065   -0.8073 H   0  0  0  0  0  0  0  0  0  0  0  0
    6.8537   -1.8779    0.8686 H   0  0  0  0  0  0  0  0  0  0  0  0
  1  2  1  0
  2  3  1  0
  3  4  1  0
  4  5  2  0
  5  6  1  0
  6  7  1  0
  6  8  1  0
  8  9  1  0
  9 10  1  0
 10 11  1  0
 10 12  1  0
  5 13  1  0
 13 14  1  0
 14 15  1  0
 15 16  2  0
 15 17  1  0
 17 18  2  0
 13 19  2  0
 19 20  1  0
 20 21  1  0
 21 22  1  0
 22 23  2  0
 23 24  1  0
 24 25  2  0
 25 26  1  0
 26 27  1  0
 27 28  2  0
 28 29  1  0
 29 30  1  0
 29 31  1  0
 31 32  2  0
 32 33  1  0
 33 34  2  0
 34 35  1  0
 35 36  2  0
 26 37  2  0
 20  3  2  0
 37 22  1  0
 36 27  1  0
 36 31  1  0
  1 38  1  0
  1 39  1  0
  1 40  1  0
  4 41  1  0
  7 42  1  0
  7 43  1  0
  7 44  1  0
  8 45  1  0
  8 46  1  0
  9 47  1  0
  9 48  1  0
 11 49  1  0
 11 50  1  0
 11 51  1  0
 12 52  1  0
 12 53  1  0
 12 54  1  0
 14 55  1  0
 17 56  1  0
 18 57  1  0
 18 58  1  0
 19 59  1  0
 21 60  1  0
 24 61  1  0
 25 62  1  0
 28 63  1  0
 30 64  1  0
 30 65  1  0
 30 66  1  0
 32 67  1  0
 33 68  1  0
 34 69  1  0
 35 70  1  0
M  END
$$$$
