
     RDKit          3D

 70 73  0  0  0  0  0  0  0  0999 V2000
  -48.8180   -2.7610  -11.1760 C   0  0  0  0  0  0  0  0  0  0  0  0
  -48.4910   -2.1400  -12.4600 N   0  0  0  0  0  0  0  0  0  0  0  0
  -47.9180   -3.1330  -13.3660 C   0  0  0  0  0  0  0  0  0  0  0  0
  -49.6710   -1.5030  -13.0520 C   0  0  0  0  0  0  0  0  0  0  0  0
  -49.5810    0.0150  -13.0680 C   0  0  0  0  0  0  0  0  0  0  0  0
  -48.7700    0.5160  -14.1830 N   0  0  0  0  0  0  0  0  0  0  0  0
  -47.7190    1.4590  -13.8160 C   0  0  0  0  0  0  0  0  0  0  0  0
  -50.4110    2.0590  -15.1760 C   0  0  0  0  0  0  0  0  0  0  0  0
  -51.2250    2.4160  -16.2410 C   0  0  0  0  0  0  0  0  0  0  0  0
  -52.0300    3.5180  -16.2610 O   0  0  0  0  0  0  0  0  0  0  0  0
  -51.9880    4.3860  -15.1320 C   0  0  0  0  0  0  0  0  0  0  0  0
  -49.6170    0.9160  -15.2650 C   0  0  0  0  0  0  0  0  0  0  0  0
  -49.6520    0.1180  -16.4160 C   0  0  0  0  0  0  0  0  0  0  0  0
  -48.8240   -1.0330  -16.4700 N   0  0  0  0  0  0  0  0  0  0  0  0
  -49.0620   -2.2150  -17.0910 C   0  0  0  0  0  0  0  0  0  0  0  0
  -50.1470   -2.4870  -17.6340 O   0  0  0  0  0  0  0  0  0  0  0  0
  -47.9190   -3.1590  -17.0840 C   0  0  0  0  0  0  0  0  0  0  0  0
  -47.9770   -4.3330  -17.6860 C   0  0  0  0  0  0  0  0  0  0  0  0
  -50.4680    0.4930  -17.4810 C   0  0  0  0  0  0  0  0  0  0  0  0
  -51.2330    1.6560  -17.4230 C   0  0  0  0  0  0  0  0  0  0  0  0
  -52.1260    2.0050  -18.4610 N   0  0  0  0  0  0  0  0  0  0  0  0
  -52.1740    1.7420  -19.8040 C   0  0  0  0  0  0  0  0  0  0  0  0
  -51.1390    1.0940  -20.3740 N   0  0  0  0  0  0  0  0  0  0  0  0
  -53.2720    2.1960  -20.4360 N   0  0  0  0  0  0  0  0  0  0  0  0
  -53.3120    1.9600  -21.7570 C   0  0  0  0  0  0  0  0  0  0  0  0
  -52.3100    1.3070  -22.4460 C   0  0  0  0  0  0  0  0  0  0  0  0
  -51.2200    0.8870  -21.6960 C   0  0  0  0  0  0  0  0  0  0  0  0
  -50.0880    0.1740  -22.3110 C   0  0  0  0  0  0  0  0  0  0  0  0
  -48.8900   -0.3070  -21.6320 C   0  0  0  0  0  0  0  0  0  0  0  0
  -48.4380   -0.2820  -20.3150 C   0  0  0  0  0  0  0  0  0  0  0  0
  -47.2140   -0.8550  -19.9980 C   0  0  0  0  0  0  0  0  0  0  0  0
  -46.4350   -1.4490  -20.9810 C   0  0  0  0  0  0  0  0  0  0  0  0
  -46.8620   -1.4830  -22.3010 C   0  0  0  0  0  0  0  0  0  0  0  0
  -48.0910   -0.9130  -22.6110 C   0  0  0  0  0  0  0  0  0  0  0  0
  -48.7500   -0.8230  -23.8160 N   0  0  0  0  0  0  0  0  0  0  0  0
  -48.2520   -1.3170  -25.0940 C   0  0  0  0  0  0  0  0  0  0  0  0
  -49.9380   -0.1660  -23.6220 C   0  0  0  0  0  0  0  0  0  0  0  0
  -48.4759   -2.1114  -10.3568 H   0  0  0  0  0  0  0  0  0  0  0  0
  -49.9066   -2.9007  -11.1030 H   0  0  0  0  0  0  0  0  0  0  0  0
  -48.3172   -3.7377  -11.1030 H   0  0  0  0  0  0  0  0  0  0  0  0
  -47.4528   -3.9391  -12.7797 H   0  0  0  0  0  0  0  0  0  0  0  0
  -48.7128   -3.5526  -14.0002 H   0  0  0  0  0  0  0  0  0  0  0  0
  -47.1570   -2.6548  -14.0002 H   0  0  0  0  0  0  0  0  0  0  0  0
  -49.7792   -1.8588  -14.0872 H   0  0  0  0  0  0  0  0  0  0  0  0
  -50.5379   -1.7749  -12.4319 H   0  0  0  0  0  0  0  0  0  0  0  0
  -50.5966    0.4281  -13.1565 H   0  0  0  0  0  0  0  0  0  0  0  0
  -49.0968    0.3319  -12.1325 H   0  0  0  0  0  0  0  0  0  0  0  0
  -47.6490    1.5218  -12.7200 H   0  0  0  0  0  0  0  0  0  0  0  0
  -46.7580    1.1146  -14.2256 H   0  0  0  0  0  0  0  0  0  0  0  0
  -47.9576    2.4516  -14.2256 H   0  0  0  0  0  0  0  0  0  0  0  0
  -50.3919    2.6750  -14.2649 H   0  0  0  0  0  0  0  0  0  0  0  0
  -52.0169    3.7885  -14.2089 H   0  0  0  0  0  0  0  0  0  0  0  0
  -51.0602    4.9764  -15.1577 H   0  0  0  0  0  0  0  0  0  0  0  0
  -52.8544    5.0632  -15.1577 H   0  0  0  0  0  0  0  0  0  0  0  0
  -47.9249   -0.9615  -15.9727 H   0  0  0  0  0  0  0  0  0  0  0  0
  -46.9943   -2.8729  -16.5614 H   0  0  0  0  0  0  0  0  0  0  0  0
  -47.1088   -5.0079  -17.6600 H   0  0  0  0  0  0  0  0  0  0  0  0
  -48.8935   -4.6359  -18.2135 H   0  0  0  0  0  0  0  0  0  0  0  0
  -50.5089   -0.1383  -18.3809 H   0  0  0  0  0  0  0  0  0  0  0  0
  -52.9134    2.5842  -18.1363 H   0  0  0  0  0  0  0  0  0  0  0  0
  -54.1909    2.3058  -22.3208 H   0  0  0  0  0  0  0  0  0  0  0  0
  -52.3718    1.1292  -23.5298 H   0  0  0  0  0  0  0  0  0  0  0  0
  -49.0477    0.1893  -19.5301 H   0  0  0  0  0  0  0  0  0  0  0  0
  -46.8580   -0.8381  -18.9573 H   0  0  0  0  0  0  0  0  0  0  0  0
  -45.4679   -1.8981  -20.7107 H   0  0  0  0  0  0  0  0  0  0  0  0
  -46.2435   -1.9492  -23.0820 H   0  0  0  0  0  0  0  0  0  0  0  0
  -47.4813   -2.0815  -24.9164 H   0  0  0  0  0  0  0  0  0  0  0  0
  -49.0820   -1.7588  -25.6649 H   0  0  0  0  0  0  0  0  0  0  0  0
  -47.8170   -0.4835  -25.6649 H   0  0  0  0  0  0  0  0  0  0  0  0
  -50.6681    0.0557  -24.4143 H   0  0  0  0  0  0  0  0  0  0  0  0
  2  1  1  0
  3  2  1  0
  4  2  1  0
  5  4  1  0
  6  5  1  0
  7  6  1  0
  9  8  1  0
 10  9  1  0
 11 10  1  0
 12  8  2  0
 12  6  1  0
 13 12  1  0
 14 13  1  0
 15 14  1  0
 16 15  2  0
 17 15  1  0
 18 17  2  0
 19 13  2  0
 20 19  1  0
 20  9  2  0
 21 20  1  0
 22 21  1  0
 23 22  1  0
 24 22  2  0
 25 24  1  0
 26 25  2  0
 27 26  1  0
 27 23  2  0
 28 27  1  0
 29 28  1  0
 30 29  2  0
 31 30  1  0
 32 31  2  0
 33 32  1  0
 34 33  2  0
 34 29  1  0
 35 34  1  0
 36 35  1  0
 37 28  2  0
 37 35  1  0
  1 38  1  0
  1 39  1  0
  1 40  1  0
  3 41  1  0
  3 42  1  0
  3 43  1  0
  4 44  1  0
  4 45  1  0
  5 46  1  0
  5 47  1  0
  7 48  1  0
  7 49  1  0
  7 50  1  0
  8 51  1  0
 11 52  1  0
 11 53  1  0
 11 54  1  0
 14 55  1  0
 17 56  1  0
 18 57  1  0
 18 58  1  0
 19 59  1  0
 21 60  1  0
 25 61  1  0
 26 62  1  0
 30 63  1  0
 31 64  1  0
 32 65  1  0
 33 66  1  0
 36 67  1  0
 36 68  1  0
 36 69  1  0
 37 70  1  0
M  END
$$$$
