
     RDKit          3D

 52 56  0  0  0  0  0  0  0  0999 V2000
    9.9240   -2.4250    0.7404 N   0  0  0  0  0  0  0  0  0  0  0  0
    8.8345   -2.0416    0.6232 C   0  0  0  0  0  0  0  0  0  0  0  0
    7.4917   -1.5624    0.4776 C   0  0  0  0  0  0  0  0  0  0  0  0
    7.0728   -0.4210    1.1619 C   0  0  0  0  0  0  0  0  0  0  0  0
    5.7599    0.0417    1.0134 C   0  0  0  0  0  0  0  0  0  0  0  0
    4.8364   -0.6221    0.1885 C   0  0  0  0  0  0  0  0  0  0  0  0
    3.5459   -0.0980    0.0769 N   0  0  0  0  0  0  0  0  0  0  0  0
    2.3839   -0.5089   -0.5711 C   0  0  0  0  0  0  0  0  0  0  0  0
    2.3427   -1.6117   -1.3317 N   0  0  0  0  0  0  0  0  0  0  0  0
    1.1653   -1.9246   -1.8966 C   0  0  0  0  0  0  0  0  0  0  0  0
    0.0243   -1.1830   -1.7303 C   0  0  0  0  0  0  0  0  0  0  0  0
    0.1409   -0.0681   -0.9266 C   0  0  0  0  0  0  0  0  0  0  0  0
   -0.9867    0.8539   -0.6771 C   0  0  0  0  0  0  0  0  0  0  0  0
   -0.7728    2.2253   -0.9311 C   0  0  0  0  0  0  0  0  0  0  0  0
   -1.8032    3.1651   -0.8409 C   0  0  0  0  0  0  0  0  0  0  0  0
   -3.0985    2.7852   -0.4830 C   0  0  0  0  0  0  0  0  0  0  0  0
   -4.2205    3.7915   -0.3952 C   0  0  0  0  0  0  0  0  0  0  0  0
   -5.0116    3.9312    0.8853 C   0  0  0  0  0  0  0  0  0  0  0  0
   -4.0715    5.0215    0.4706 C   0  0  0  0  0  0  0  0  0  0  0  0
   -3.3158    1.4228   -0.2197 C   0  0  0  0  0  0  0  0  0  0  0  0
   -2.2892    0.4558   -0.2896 C   0  0  0  0  0  0  0  0  0  0  0  0
   -2.6340   -0.8877    0.0727 N   0  0  0  0  0  0  0  0  0  0  0  0
   -3.7332   -1.5304   -0.6572 C   0  0  0  0  0  0  0  0  0  0  0  0
   -4.2940   -2.7322    0.0900 C   0  0  0  0  0  0  0  0  0  0  0  0
   -3.2355   -3.6632    0.2982 O   0  0  0  0  0  0  0  0  0  0  0  0
   -2.2520   -3.1009    1.1539 C   0  0  0  0  0  0  0  0  0  0  0  0
   -1.8468   -1.6250    0.9644 C   0  0  0  0  0  0  0  0  0  0  0  0
   -0.9294   -1.1542    1.6363 O   0  0  0  0  0  0  0  0  0  0  0  0
    1.3231    0.2889   -0.3743 N   0  0  0  0  0  0  0  0  0  0  0  0
    5.2798   -1.7587   -0.4958 C   0  0  0  0  0  0  0  0  0  0  0  0
    6.5919   -2.2299   -0.3538 C   0  0  0  0  0  0  0  0  0  0  0  0
    7.7582    0.1177    1.8130 H   0  0  0  0  0  0  0  0  0  0  0  0
    5.4604    0.9357    1.5557 H   0  0  0  0  0  0  0  0  0  0  0  0
    3.3142    0.6949    0.6581 H   0  0  0  0  0  0  0  0  0  0  0  0
    1.1696   -2.8206   -2.5101 H   0  0  0  0  0  0  0  0  0  0  0  0
   -0.8999   -1.4588   -2.2164 H   0  0  0  0  0  0  0  0  0  0  0  0
    0.2188    2.5692   -1.2257 H   0  0  0  0  0  0  0  0  0  0  0  0
   -1.5851    4.2095   -1.0550 H   0  0  0  0  0  0  0  0  0  0  0  0
   -4.7823    3.9303   -1.3177 H   0  0  0  0  0  0  0  0  0  0  0  0
   -6.0758    4.1209    0.8057 H   0  0  0  0  0  0  0  0  0  0  0  0
   -4.7329    3.3329    1.7461 H   0  0  0  0  0  0  0  0  0  0  0  0
   -3.1646    5.1504    1.0521 H   0  0  0  0  0  0  0  0  0  0  0  0
   -4.4950    5.9505    0.1068 H   0  0  0  0  0  0  0  0  0  0  0  0
   -4.3123    1.1300    0.1049 H   0  0  0  0  0  0  0  0  0  0  0  0
   -4.5409   -0.8232   -0.8643 H   0  0  0  0  0  0  0  0  0  0  0  0
   -3.3127   -1.8618   -1.6147 H   0  0  0  0  0  0  0  0  0  0  0  0
   -5.0654   -3.2243   -0.5095 H   0  0  0  0  0  0  0  0  0  0  0  0
   -4.7375   -2.4480    1.0514 H   0  0  0  0  0  0  0  0  0  0  0  0
   -1.3459   -3.7061    1.0446 H   0  0  0  0  0  0  0  0  0  0  0  0
   -2.6034   -3.2083    2.1871 H   0  0  0  0  0  0  0  0  0  0  0  0
    4.6135   -2.3050   -1.1570 H   0  0  0  0  0  0  0  0  0  0  0  0
    6.8965   -3.1199   -0.9004 H   0  0  0  0  0  0  0  0  0  0  0  0
  1  2  3  0
  2  3  1  0
  3  4  1  0
  4  5  2  0
  5  6  1  0
  6  7  1  0
  7  8  1  0
  8  9  2  0
  9 10  1  0
 10 11  2  0
 11 12  1  0
 12 13  1  0
 13 14  1  0
 14 15  2  0
 15 16  1  0
 16 17  1  0
 17 18  1  0
 18 19  1  0
 16 20  2  0
 20 21  1  0
 21 22  1  0
 22 23  1  0
 23 24  1  0
 24 25  1  0
 25 26  1  0
 26 27  1  0
 27 28  2  0
 12 29  2  0
  6 30  2  0
 30 31  1  0
 31  3  2  0
 29  8  1  0
 21 13  2  0
 27 22  1  0
 19 17  1  0
  4 32  1  0
  5 33  1  0
  7 34  1  0
 10 35  1  0
 11 36  1  0
 14 37  1  0
 15 38  1  0
 17 39  1  0
 18 40  1  0
 18 41  1  0
 19 42  1  0
 19 43  1  0
 20 44  1  0
 23 45  1  0
 23 46  1  0
 24 47  1  0
 24 48  1  0
 26 49  1  0
 26 50  1  0
 30 51  1  0
 31 52  1  0
M  END
$$$$
