
     RDKit          3D

 52 55  0  0  0  0  0  0  0  0999 V2000
    5.9181    1.3540   -1.1134 C   0  0  0  0  0  0  0  0  0  0  0  0
    5.4279    1.6573    0.5742 S   0  0  0  0  0  0  0  0  0  0  0  0
    4.9646    3.0251    0.6609 O   0  0  0  0  0  0  0  0  0  0  0  0
    6.4814    1.1663    1.4360 O   0  0  0  0  0  0  0  0  0  0  0  0
    4.0918    0.6475    0.7705 N   0  0  0  0  0  0  0  0  0  0  0  0
    2.8571    0.9888    0.0053 C   0  0  0  0  0  0  0  0  0  0  0  0
    1.6381    0.2660    0.6090 C   0  0  0  0  0  0  0  0  0  0  0  0
    1.8501   -1.2063    0.6721 N   0  0  0  0  0  0  0  0  0  0  0  0
    1.3557   -1.9464   -0.4115 C   0  0  0  0  0  0  0  0  0  0  0  0
    2.2210   -2.6645   -1.2593 C   0  0  0  0  0  0  0  0  0  0  0  0
    1.7494   -3.3552   -2.3780 C   0  0  0  0  0  0  0  0  0  0  0  0
    2.8605   -4.1921   -3.3922 Cl  0  0  0  0  0  0  0  0  0  0  0  0
    0.3988   -3.3643   -2.6834 C   0  0  0  0  0  0  0  0  0  0  0  0
   -0.4878   -2.6942   -1.8453 C   0  0  0  0  0  0  0  0  0  0  0  0
   -0.0426   -1.9982   -0.6966 C   0  0  0  0  0  0  0  0  0  0  0  0
   -1.0741   -1.4067    0.1837 C   0  0  0  0  0  0  0  0  0  0  0  0
   -1.1068   -1.6328    1.5431 C   0  0  0  0  0  0  0  0  0  0  0  0
   -2.1254   -1.0227    2.2262 C   0  0  0  0  0  0  0  0  0  0  0  0
   -3.0554   -0.2525    1.6366 N   0  0  0  0  0  0  0  0  0  0  0  0
   -2.9692   -0.0870    0.3103 C   0  0  0  0  0  0  0  0  0  0  0  0
   -3.8817    0.6874   -0.4004 N   0  0  0  0  0  0  0  0  0  0  0  0
   -5.0090    1.4357   -0.0481 C   0  0  0  0  0  0  0  0  0  0  0  0
   -5.4879    1.5570    1.2626 C   0  0  0  0  0  0  0  0  0  0  0  0
   -6.6238    2.3218    1.5512 C   0  0  0  0  0  0  0  0  0  0  0  0
   -7.2916    2.9733    0.5252 C   0  0  0  0  0  0  0  0  0  0  0  0
   -8.3788    3.7051    0.8007 F   0  0  0  0  0  0  0  0  0  0  0  0
   -6.8451    2.8746   -0.7837 C   0  0  0  0  0  0  0  0  0  0  0  0
   -5.7098    2.1093   -1.0658 C   0  0  0  0  0  0  0  0  0  0  0  0
   -2.0053   -0.6459   -0.4393 N   0  0  0  0  0  0  0  0  0  0  0  0
    3.1118   -1.5776    1.3530 C   0  0  0  0  0  0  0  0  0  0  0  0
    4.3426   -0.8213    0.8090 C   0  0  0  0  0  0  0  0  0  0  0  0
    5.1026    1.6313   -1.7827 H   0  0  0  0  0  0  0  0  0  0  0  0
    6.1877    0.3035   -1.2293 H   0  0  0  0  0  0  0  0  0  0  0  0
    6.7895    1.9792   -1.3220 H   0  0  0  0  0  0  0  0  0  0  0  0
    2.6711    2.0666    0.0446 H   0  0  0  0  0  0  0  0  0  0  0  0
    2.9845    0.6953   -1.0428 H   0  0  0  0  0  0  0  0  0  0  0  0
    0.7493    0.5421    0.0328 H   0  0  0  0  0  0  0  0  0  0  0  0
    1.4759    0.6251    1.6331 H   0  0  0  0  0  0  0  0  0  0  0  0
    3.2886   -2.6850   -1.0767 H   0  0  0  0  0  0  0  0  0  0  0  0
    0.0262   -3.8962   -3.5542 H   0  0  0  0  0  0  0  0  0  0  0  0
   -1.5529   -2.7280   -2.0745 H   0  0  0  0  0  0  0  0  0  0  0  0
   -0.3724   -2.2471    2.0463 H   0  0  0  0  0  0  0  0  0  0  0  0
   -2.2293   -1.1369    3.3009 H   0  0  0  0  0  0  0  0  0  0  0  0
   -3.6260    0.6724   -1.3765 H   0  0  0  0  0  0  0  0  0  0  0  0
   -4.9886    1.0598    2.0886 H   0  0  0  0  0  0  0  0  0  0  0  0
   -6.9848    2.4082    2.5708 H   0  0  0  0  0  0  0  0  0  0  0  0
   -7.3785    3.3903   -1.5752 H   0  0  0  0  0  0  0  0  0  0  0  0
   -5.3738    2.0428   -2.0979 H   0  0  0  0  0  0  0  0  0  0  0  0
    3.2791   -2.6608    1.3222 H   0  0  0  0  0  0  0  0  0  0  0  0
    2.9924   -1.3221    2.4140 H   0  0  0  0  0  0  0  0  0  0  0  0
    4.5934   -1.1649   -0.1986 H   0  0  0  0  0  0  0  0  0  0  0  0
    5.1914   -1.0429    1.4640 H   0  0  0  0  0  0  0  0  0  0  0  0
  1  2  1  0
  2  3  2  0
  2  4  2  0
  2  5  1  0
  5  6  1  0
  6  7  1  0
  7  8  1  0
  8  9  1  0
  9 10  1  0
 10 11  2  0
 11 12  1  0
 11 13  1  0
 13 14  2  0
 14 15  1  0
 15 16  1  0
 16 17  1  0
 17 18  2  0
 18 19  1  0
 19 20  2  0
 20 21  1  0
 21 22  1  0
 22 23  1  0
 23 24  2  0
 24 25  1  0
 25 26  1  0
 25 27  2  0
 27 28  1  0
 20 29  1  0
  8 30  1  0
 30 31  1  0
 31  5  1  0
 15  9  2  0
 29 16  2  0
 28 22  2  0
  1 32  1  0
  1 33  1  0
  1 34  1  0
  6 35  1  0
  6 36  1  0
  7 37  1  0
  7 38  1  0
 10 39  1  0
 13 40  1  0
 14 41  1  0
 17 42  1  0
 18 43  1  0
 21 44  1  0
 23 45  1  0
 24 46  1  0
 27 47  1  0
 28 48  1  0
 30 49  1  0
 30 50  1  0
 31 51  1  0
 31 52  1  0
M  END
$$$$
