
     RDKit          3D

 49 52  0  0  0  0  0  0  0  0999 V2000
   -4.4337   -4.1103    1.1291 C   0  0  0  0  0  0  0  0  0  0  0  0
   -3.3387   -3.0885    1.0403 C   0  0  0  0  0  0  0  0  0  0  0  0
   -2.0753   -3.3589    1.5562 C   0  0  0  0  0  0  0  0  0  0  0  0
   -1.0810   -2.3849    1.5003 C   0  0  0  0  0  0  0  0  0  0  0  0
   -1.3191   -1.1121    0.9364 C   0  0  0  0  0  0  0  0  0  0  0  0
   -0.2325   -0.1165    1.0155 C   0  0  0  0  0  0  0  0  0  0  0  0
   -0.4115    1.1204    1.5972 C   0  0  0  0  0  0  0  0  0  0  0  0
    0.6876    1.9376    1.6119 C   0  0  0  0  0  0  0  0  0  0  0  0
    1.8818    1.5831    1.1068 N   0  0  0  0  0  0  0  0  0  0  0  0
    1.9842    0.3599    0.5691 C   0  0  0  0  0  0  0  0  0  0  0  0
    3.1737   -0.1102    0.0196 N   0  0  0  0  0  0  0  0  0  0  0  0
    4.4549    0.4251   -0.1359 C   0  0  0  0  0  0  0  0  0  0  0  0
    4.8242    1.7046    0.2917 C   0  0  0  0  0  0  0  0  0  0  0  0
    6.1267    2.1875    0.1068 C   0  0  0  0  0  0  0  0  0  0  0  0
    7.0896    1.3920   -0.5146 C   0  0  0  0  0  0  0  0  0  0  0  0
    8.4222    1.8841   -0.7050 C   0  0  0  0  0  0  0  0  0  0  0  0
    9.5025    2.2791   -0.8608 N   0  0  0  0  0  0  0  0  0  0  0  0
    6.7424    0.1127   -0.9491 C   0  0  0  0  0  0  0  0  0  0  0  0
    5.4386   -0.3610   -0.7597 C   0  0  0  0  0  0  0  0  0  0  0  0
    0.9618   -0.5075    0.5115 N   0  0  0  0  0  0  0  0  0  0  0  0
   -2.5988   -0.8280    0.3795 C   0  0  0  0  0  0  0  0  0  0  0  0
   -2.8676    0.3957   -0.2547 N   0  0  0  0  0  0  0  0  0  0  0  0
   -2.0266    0.7015   -1.4428 C   0  0  0  0  0  0  0  0  0  0  0  0
   -2.8947    1.1080   -2.6462 C   0  0  0  0  0  0  0  0  0  0  0  0
   -3.7509    2.2318   -2.3868 O   0  0  0  0  0  0  0  0  0  0  0  0
   -4.2351    2.2764   -1.0344 C   0  0  0  0  0  0  0  0  0  0  0  0
   -4.2491    0.9025   -0.3462 C   0  0  0  0  0  0  0  0  0  0  0  0
   -3.5896   -1.8282    0.4744 C   0  0  0  0  0  0  0  0  0  0  0  0
   -5.0872   -4.0571    0.2520 H   0  0  0  0  0  0  0  0  0  0  0  0
   -5.0317   -3.9400    2.0295 H   0  0  0  0  0  0  0  0  0  0  0  0
   -4.0231   -5.1249    1.1658 H   0  0  0  0  0  0  0  0  0  0  0  0
   -1.8547   -4.3213    2.0114 H   0  0  0  0  0  0  0  0  0  0  0  0
   -0.1027   -2.6102    1.9231 H   0  0  0  0  0  0  0  0  0  0  0  0
   -1.3621    1.4318    2.0085 H   0  0  0  0  0  0  0  0  0  0  0  0
    0.6416    2.9332    2.0425 H   0  0  0  0  0  0  0  0  0  0  0  0
    3.0175   -1.0472   -0.3223 H   0  0  0  0  0  0  0  0  0  0  0  0
    4.1064    2.3576    0.7801 H   0  0  0  0  0  0  0  0  0  0  0  0
    6.3739    3.1889    0.4542 H   0  0  0  0  0  0  0  0  0  0  0  0
    7.4769   -0.5253   -1.4365 H   0  0  0  0  0  0  0  0  0  0  0  0
    5.1957   -1.3626   -1.1087 H   0  0  0  0  0  0  0  0  0  0  0  0
   -1.3992   -0.1485   -1.7365 H   0  0  0  0  0  0  0  0  0  0  0  0
   -1.3717    1.5415   -1.1855 H   0  0  0  0  0  0  0  0  0  0  0  0
   -2.2571    1.3722   -3.4960 H   0  0  0  0  0  0  0  0  0  0  0  0
   -3.5266    0.2700   -2.9633 H   0  0  0  0  0  0  0  0  0  0  0  0
   -5.2452    2.6969   -1.0622 H   0  0  0  0  0  0  0  0  0  0  0  0
   -3.6005    2.9771   -0.4793 H   0  0  0  0  0  0  0  0  0  0  0  0
   -4.8749    0.2244   -0.9380 H   0  0  0  0  0  0  0  0  0  0  0  0
   -4.6782    1.0003    0.6572 H   0  0  0  0  0  0  0  0  0  0  0  0
   -4.5834   -1.6529    0.0729 H   0  0  0  0  0  0  0  0  0  0  0  0
  1  2  1  0
  2  3  1  0
  3  4  2  0
  4  5  1  0
  5  6  1  0
  6  7  1  0
  7  8  2  0
  8  9  1  0
  9 10  2  0
 10 11  1  0
 11 12  1  0
 12 13  1  0
 13 14  2  0
 14 15  1  0
 15 16  1  0
 16 17  3  0
 15 18  2  0
 18 19  1  0
 10 20  1  0
  5 21  2  0
 21 22  1  0
 22 23  1  0
 23 24  1  0
 24 25  1  0
 25 26  1  0
 26 27  1  0
 21 28  1  0
 28  2  2  0
 20  6  2  0
 27 22  1  0
 19 12  2  0
  1 29  1  0
  1 30  1  0
  1 31  1  0
  3 32  1  0
  4 33  1  0
  7 34  1  0
  8 35  1  0
 11 36  1  0
 13 37  1  0
 14 38  1  0
 18 39  1  0
 19 40  1  0
 23 41  1  0
 23 42  1  0
 24 43  1  0
 24 44  1  0
 26 45  1  0
 26 46  1  0
 27 47  1  0
 27 48  1  0
 28 49  1  0
M  END
$$$$
