
     RDKit          3D

 46 49  0  0  0  0  0  0  0  0999 V2000
    9.3620   -1.9245    0.3157 N   0  0  0  0  0  0  0  0  0  0  0  0
    8.2710   -1.5309    0.2718 C   0  0  0  0  0  0  0  0  0  0  0  0
    6.9248   -1.0423    0.2139 C   0  0  0  0  0  0  0  0  0  0  0  0
    5.9573   -1.5370    1.0887 C   0  0  0  0  0  0  0  0  0  0  0  0
    4.6416   -1.0581    1.0304 C   0  0  0  0  0  0  0  0  0  0  0  0
    4.2633   -0.0808    0.1039 C   0  0  0  0  0  0  0  0  0  0  0  0
    2.9690    0.4350   -0.0020 N   0  0  0  0  0  0  0  0  0  0  0  0
    1.7701    0.1948    0.6637 C   0  0  0  0  0  0  0  0  0  0  0  0
    1.6717   -0.7047    1.6514 N   0  0  0  0  0  0  0  0  0  0  0  0
    0.4677   -0.8577    2.2282 C   0  0  0  0  0  0  0  0  0  0  0  0
   -0.6450   -0.1512    1.8543 C   0  0  0  0  0  0  0  0  0  0  0  0
   -0.4714    0.7465    0.8228 C   0  0  0  0  0  0  0  0  0  0  0  0
   -1.5692    1.5913    0.3055 C   0  0  0  0  0  0  0  0  0  0  0  0
   -1.3289    2.9755    0.1508 C   0  0  0  0  0  0  0  0  0  0  0  0
   -2.3226    3.8453   -0.2955 C   0  0  0  0  0  0  0  0  0  0  0  0
   -3.5774    3.3414   -0.6026 C   0  0  0  0  0  0  0  0  0  0  0  0
   -4.8107    4.4032   -1.1627 Cl  0  0  0  0  0  0  0  0  0  0  0  0
   -3.8446    1.9786   -0.4726 C   0  0  0  0  0  0  0  0  0  0  0  0
   -2.8583    1.0795   -0.0207 C   0  0  0  0  0  0  0  0  0  0  0  0
   -3.1173   -0.3071    0.0511 N   0  0  0  0  0  0  0  0  0  0  0  0
   -2.6124   -1.0195   -1.1543 C   0  0  0  0  0  0  0  0  0  0  0  0
   -3.1543   -2.4568   -1.1789 C   0  0  0  0  0  0  0  0  0  0  0  0
   -4.5876   -2.5252   -1.2564 O   0  0  0  0  0  0  0  0  0  0  0  0
   -5.2449   -1.3888   -0.6742 C   0  0  0  0  0  0  0  0  0  0  0  0
   -4.4608   -0.7581    0.4863 C   0  0  0  0  0  0  0  0  0  0  0  0
    0.7342    0.9324    0.2336 N   0  0  0  0  0  0  0  0  0  0  0  0
    5.2520    0.4053   -0.7684 C   0  0  0  0  0  0  0  0  0  0  0  0
    6.5689   -0.0670   -0.7179 C   0  0  0  0  0  0  0  0  0  0  0  0
    6.2113   -2.2978    1.8244 H   0  0  0  0  0  0  0  0  0  0  0  0
    3.9211   -1.4706    1.7308 H   0  0  0  0  0  0  0  0  0  0  0  0
    2.8074    1.1399   -0.7063 H   0  0  0  0  0  0  0  0  0  0  0  0
    0.4247   -1.5908    3.0279 H   0  0  0  0  0  0  0  0  0  0  0  0
   -1.6000   -0.2972    2.3402 H   0  0  0  0  0  0  0  0  0  0  0  0
   -0.3469    3.3812    0.3926 H   0  0  0  0  0  0  0  0  0  0  0  0
   -2.1074    4.9050   -0.4003 H   0  0  0  0  0  0  0  0  0  0  0  0
   -4.8284    1.6192   -0.7572 H   0  0  0  0  0  0  0  0  0  0  0  0
   -1.5177   -1.0492   -1.1491 H   0  0  0  0  0  0  0  0  0  0  0  0
   -2.9413   -0.5003   -2.0642 H   0  0  0  0  0  0  0  0  0  0  0  0
   -2.8430   -2.9997   -0.2788 H   0  0  0  0  0  0  0  0  0  0  0  0
   -2.7543   -2.9968   -2.0429 H   0  0  0  0  0  0  0  0  0  0  0  0
   -6.2266   -1.7244   -0.3250 H   0  0  0  0  0  0  0  0  0  0  0  0
   -5.4153   -0.6583   -1.4729 H   0  0  0  0  0  0  0  0  0  0  0  0
   -4.3025   -1.5222    1.2575 H   0  0  0  0  0  0  0  0  0  0  0  0
   -5.0390    0.0431    0.9600 H   0  0  0  0  0  0  0  0  0  0  0  0
    5.0029    1.1661   -1.5054 H   0  0  0  0  0  0  0  0  0  0  0  0
    7.3070    0.3335   -1.4100 H   0  0  0  0  0  0  0  0  0  0  0  0
  1  2  3  0
  2  3  1  0
  3  4  1  0
  4  5  2  0
  5  6  1  0
  6  7  1  0
  7  8  1  0
  8  9  2  0
  9 10  1  0
 10 11  2  0
 11 12  1  0
 12 13  1  0
 13 14  1  0
 14 15  2  0
 15 16  1  0
 16 17  1  0
 16 18  2  0
 18 19  1  0
 19 20  1  0
 20 21  1  0
 21 22  1  0
 22 23  1  0
 23 24  1  0
 24 25  1  0
 12 26  2  0
  6 27  2  0
 27 28  1  0
 28  3  2  0
 26  8  1  0
 19 13  2  0
 25 20  1  0
  4 29  1  0
  5 30  1  0
  7 31  1  0
 10 32  1  0
 11 33  1  0
 14 34  1  0
 15 35  1  0
 18 36  1  0
 21 37  1  0
 21 38  1  0
 22 39  1  0
 22 40  1  0
 24 41  1  0
 24 42  1  0
 25 43  1  0
 25 44  1  0
 27 45  1  0
 28 46  1  0
M  END
$$$$
