
     RDKit          3D

 44 47  0  0  0  0  0  0  0  0999 V2000
   -1.7302    1.4661    2.2082 O   0  0  0  0  0  0  0  0  0  0  0  0
   -2.0172    0.3725    1.7182 C   0  0  0  0  0  0  0  0  0  0  0  0
   -1.7416   -0.9308    2.4945 C   0  0  0  0  0  0  0  0  0  0  0  0
   -2.5174   -2.0793    2.1807 O   0  0  0  0  0  0  0  0  0  0  0  0
   -2.5993   -2.2500    0.7671 C   0  0  0  0  0  0  0  0  0  0  0  0
   -3.3011   -1.0386    0.1654 C   0  0  0  0  0  0  0  0  0  0  0  0
   -2.5605    0.1913    0.4368 N   0  0  0  0  0  0  0  0  0  0  0  0
   -2.6879    1.2988   -0.4627 C   0  0  0  0  0  0  0  0  0  0  0  0
   -3.9299    1.5398   -1.0774 C   0  0  0  0  0  0  0  0  0  0  0  0
   -4.1017    2.6293   -1.9298 C   0  0  0  0  0  0  0  0  0  0  0  0
   -5.6381    2.9146   -2.6506 Cl  0  0  0  0  0  0  0  0  0  0  0  0
   -3.0451    3.4886   -2.1991 C   0  0  0  0  0  0  0  0  0  0  0  0
   -1.7979    3.2451   -1.6230 C   0  0  0  0  0  0  0  0  0  0  0  0
   -1.5881    2.1476   -0.7595 C   0  0  0  0  0  0  0  0  0  0  0  0
   -0.2147    1.8732   -0.3008 C   0  0  0  0  0  0  0  0  0  0  0  0
    0.4869    2.7598    0.4868 C   0  0  0  0  0  0  0  0  0  0  0  0
    1.7502    2.3657    0.8404 C   0  0  0  0  0  0  0  0  0  0  0  0
    2.3050    1.2073    0.4424 N   0  0  0  0  0  0  0  0  0  0  0  0
    1.5665    0.4045   -0.3348 C   0  0  0  0  0  0  0  0  0  0  0  0
    2.0451   -0.8139   -0.8083 N   0  0  0  0  0  0  0  0  0  0  0  0
    3.2463   -1.5135   -0.6590 C   0  0  0  0  0  0  0  0  0  0  0  0
    4.3083   -1.0790    0.1442 C   0  0  0  0  0  0  0  0  0  0  0  0
    5.4860   -1.8268    0.2552 C   0  0  0  0  0  0  0  0  0  0  0  0
    5.6090   -3.0207   -0.4393 C   0  0  0  0  0  0  0  0  0  0  0  0
    6.7356   -3.7370   -0.3334 F   0  0  0  0  0  0  0  0  0  0  0  0
    4.5767   -3.4811   -1.2421 C   0  0  0  0  0  0  0  0  0  0  0  0
    3.4027   -2.7300   -1.3490 C   0  0  0  0  0  0  0  0  0  0  0  0
    0.3162    0.7013   -0.7220 N   0  0  0  0  0  0  0  0  0  0  0  0
   -0.6817   -1.1763    2.3578 H   0  0  0  0  0  0  0  0  0  0  0  0
   -1.9001   -0.7211    3.5575 H   0  0  0  0  0  0  0  0  0  0  0  0
   -1.5933   -2.3875    0.3524 H   0  0  0  0  0  0  0  0  0  0  0  0
   -3.1773   -3.1580    0.5702 H   0  0  0  0  0  0  0  0  0  0  0  0
   -4.2938   -0.9276    0.6180 H   0  0  0  0  0  0  0  0  0  0  0  0
   -3.4014   -1.1822   -0.9159 H   0  0  0  0  0  0  0  0  0  0  0  0
   -4.7878    0.9095   -0.8631 H   0  0  0  0  0  0  0  0  0  0  0  0
   -3.1767    4.3364   -2.8663 H   0  0  0  0  0  0  0  0  0  0  0  0
   -0.9682    3.9022   -1.8803 H   0  0  0  0  0  0  0  0  0  0  0  0
    0.0583    3.6873    0.8409 H   0  0  0  0  0  0  0  0  0  0  0  0
    2.3740    2.9851    1.4778 H   0  0  0  0  0  0  0  0  0  0  0  0
    1.3468   -1.2205   -1.4124 H   0  0  0  0  0  0  0  0  0  0  0  0
    4.2431   -0.1503    0.7030 H   0  0  0  0  0  0  0  0  0  0  0  0
    6.3019   -1.4793    0.8805 H   0  0  0  0  0  0  0  0  0  0  0  0
    4.6885   -4.4170   -1.7791 H   0  0  0  0  0  0  0  0  0  0  0  0
    2.6039   -3.1055   -1.9840 H   0  0  0  0  0  0  0  0  0  0  0  0
  1  2  2  0
  2  3  1  0
  3  4  1  0
  4  5  1  0
  5  6  1  0
  6  7  1  0
  7  8  1  0
  8  9  1  0
  9 10  2  0
 10 11  1  0
 10 12  1  0
 12 13  2  0
 13 14  1  0
 14 15  1  0
 15 16  1  0
 16 17  2  0
 17 18  1  0
 18 19  2  0
 19 20  1  0
 20 21  1  0
 21 22  1  0
 22 23  2  0
 23 24  1  0
 24 25  1  0
 24 26  2  0
 26 27  1  0
 19 28  1  0
  7  2  1  0
 14  8  2  0
 28 15  2  0
 27 21  2  0
  3 29  1  0
  3 30  1  0
  5 31  1  0
  5 32  1  0
  6 33  1  0
  6 34  1  0
  9 35  1  0
 12 36  1  0
 13 37  1  0
 16 38  1  0
 17 39  1  0
 20 40  1  0
 22 41  1  0
 23 42  1  0
 26 43  1  0
 27 44  1  0
M  END
$$$$
