
     RDKit          3D

 54 57  0  0  0  0  0  0  0  0999 V2000
   -4.5307    1.1897    4.8648 C   0  0  0  0  0  0  0  0  0  0  0  0
   -3.5687    0.7024    3.8224 C   0  0  0  0  0  0  0  0  0  0  0  0
   -2.2107    0.5949    4.1095 C   0  0  0  0  0  0  0  0  0  0  0  0
   -1.3283    0.1135    3.1418 C   0  0  0  0  0  0  0  0  0  0  0  0
   -1.7724   -0.2922    1.8651 C   0  0  0  0  0  0  0  0  0  0  0  0
   -0.7743   -0.8274    0.9138 C   0  0  0  0  0  0  0  0  0  0  0  0
   -0.9724   -1.9915    0.2032 C   0  0  0  0  0  0  0  0  0  0  0  0
    0.0455   -2.3653   -0.6351 C   0  0  0  0  0  0  0  0  0  0  0  0
    1.1879   -1.6716   -0.7707 N   0  0  0  0  0  0  0  0  0  0  0  0
    1.3218   -0.5619   -0.0328 C   0  0  0  0  0  0  0  0  0  0  0  0
    2.4731    0.2198   -0.0740 N   0  0  0  0  0  0  0  0  0  0  0  0
    3.6781    0.1464   -0.7767 C   0  0  0  0  0  0  0  0  0  0  0  0
    3.9706   -0.8430   -1.7236 C   0  0  0  0  0  0  0  0  0  0  0  0
    5.1995   -0.8707   -2.3941 C   0  0  0  0  0  0  0  0  0  0  0  0
    6.1528    0.1079   -2.1224 C   0  0  0  0  0  0  0  0  0  0  0  0
    7.7149    0.0892   -2.9663 S   0  0  0  0  0  0  0  0  0  0  0  0
    7.4946    1.2940   -4.2495 C   0  0  0  0  0  0  0  0  0  0  0  0
    7.8675   -1.2083   -3.5947 O   0  0  0  0  0  0  0  0  0  0  0  0
    8.7128    0.5907   -2.0410 O   0  0  0  0  0  0  0  0  0  0  0  0
    5.9004    1.0942   -1.1707 C   0  0  0  0  0  0  0  0  0  0  0  0
    4.6687    1.1082   -0.5085 C   0  0  0  0  0  0  0  0  0  0  0  0
    0.3745   -0.1161    0.8071 N   0  0  0  0  0  0  0  0  0  0  0  0
   -3.1595   -0.1932    1.5675 C   0  0  0  0  0  0  0  0  0  0  0  0
   -3.6420   -0.5256    0.2820 N   0  0  0  0  0  0  0  0  0  0  0  0
   -3.4803    0.6073   -0.6659 C   0  0  0  0  0  0  0  0  0  0  0  0
   -4.2429    0.3100   -1.9665 C   0  0  0  0  0  0  0  0  0  0  0  0
   -5.6601    0.1593   -1.7767 O   0  0  0  0  0  0  0  0  0  0  0  0
   -6.0125   -0.2980   -0.4614 C   0  0  0  0  0  0  0  0  0  0  0  0
   -4.9517   -1.2086    0.1752 C   0  0  0  0  0  0  0  0  0  0  0  0
   -4.0302    0.3005    2.5619 C   0  0  0  0  0  0  0  0  0  0  0  0
   -4.9051    0.3440    5.4488 H   0  0  0  0  0  0  0  0  0  0  0  0
   -4.0469    1.9026    5.5404 H   0  0  0  0  0  0  0  0  0  0  0  0
   -5.3794    1.7052    4.4031 H   0  0  0  0  0  0  0  0  0  0  0  0
   -1.8247    0.8847    5.0839 H   0  0  0  0  0  0  0  0  0  0  0  0
   -0.2703    0.0414    3.3904 H   0  0  0  0  0  0  0  0  0  0  0  0
   -1.8768   -2.5774    0.2941 H   0  0  0  0  0  0  0  0  0  0  0  0
   -0.0269   -3.2649   -1.2379 H   0  0  0  0  0  0  0  0  0  0  0  0
    2.3542    0.9937    0.5633 H   0  0  0  0  0  0  0  0  0  0  0  0
    3.2478   -1.6191   -1.9589 H   0  0  0  0  0  0  0  0  0  0  0  0
    5.3947   -1.6609   -3.1162 H   0  0  0  0  0  0  0  0  0  0  0  0
    6.6697    0.9830   -4.8932 H   0  0  0  0  0  0  0  0  0  0  0  0
    7.2901    2.2652   -3.7932 H   0  0  0  0  0  0  0  0  0  0  0  0
    8.4194    1.3445   -4.8284 H   0  0  0  0  0  0  0  0  0  0  0  0
    6.6508    1.8429   -0.9270 H   0  0  0  0  0  0  0  0  0  0  0  0
    4.4904    1.8808    0.2373 H   0  0  0  0  0  0  0  0  0  0  0  0
   -3.8787    1.5302   -0.2231 H   0  0  0  0  0  0  0  0  0  0  0  0
   -2.4208    0.7637   -0.8953 H   0  0  0  0  0  0  0  0  0  0  0  0
   -4.0948    1.1212   -2.6854 H   0  0  0  0  0  0  0  0  0  0  0  0
   -3.8699   -0.6116   -2.4278 H   0  0  0  0  0  0  0  0  0  0  0  0
   -6.9617   -0.8369   -0.5500 H   0  0  0  0  0  0  0  0  0  0  0  0
   -6.1944    0.5859    0.1602 H   0  0  0  0  0  0  0  0  0  0  0  0
   -4.8014   -2.0763   -0.4786 H   0  0  0  0  0  0  0  0  0  0  0  0
   -5.3003   -1.6014    1.1364 H   0  0  0  0  0  0  0  0  0  0  0  0
   -5.0909    0.4051    2.3493 H   0  0  0  0  0  0  0  0  0  0  0  0
  1  2  1  0
  2  3  1  0
  3  4  2  0
  4  5  1  0
  5  6  1  0
  6  7  1  0
  7  8  2  0
  8  9  1  0
  9 10  2  0
 10 11  1  0
 11 12  1  0
 12 13  1  0
 13 14  2  0
 14 15  1  0
 15 16  1  0
 16 17  1  0
 16 18  2  0
 16 19  2  0
 15 20  2  0
 20 21  1  0
 10 22  1  0
  5 23  2  0
 23 24  1  0
 24 25  1  0
 25 26  1  0
 26 27  1  0
 27 28  1  0
 28 29  1  0
 23 30  1  0
 30  2  2  0
 22  6  2  0
 29 24  1  0
 21 12  2  0
  1 31  1  0
  1 32  1  0
  1 33  1  0
  3 34  1  0
  4 35  1  0
  7 36  1  0
  8 37  1  0
 11 38  1  0
 13 39  1  0
 14 40  1  0
 17 41  1  0
 17 42  1  0
 17 43  1  0
 20 44  1  0
 21 45  1  0
 25 46  1  0
 25 47  1  0
 26 48  1  0
 26 49  1  0
 28 50  1  0
 28 51  1  0
 29 52  1  0
 29 53  1  0
 30 54  1  0
M  END
$$$$
