
     RDKit          3D

 40 43  0  0  0  0  0  0  0  0999 V2000
    7.1622   -0.0834   -2.7445 F   0  0  0  0  0  0  0  0  0  0  0  0
    5.9222    0.0346   -2.2528 C   0  0  0  0  0  0  0  0  0  0  0  0
    5.6256   -0.4908   -1.0043 C   0  0  0  0  0  0  0  0  0  0  0  0
    4.3288   -0.3693   -0.4919 C   0  0  0  0  0  0  0  0  0  0  0  0
    3.3194    0.2755   -1.2186 C   0  0  0  0  0  0  0  0  0  0  0  0
    2.0081    0.4338   -0.7585 N   0  0  0  0  0  0  0  0  0  0  0  0
    1.3488    0.1063    0.4225 C   0  0  0  0  0  0  0  0  0  0  0  0
    1.9779   -0.4703    1.4551 N   0  0  0  0  0  0  0  0  0  0  0  0
    1.2533   -0.7366    2.5546 C   0  0  0  0  0  0  0  0  0  0  0  0
   -0.0816   -0.4491    2.6677 C   0  0  0  0  0  0  0  0  0  0  0  0
   -0.6589    0.1386    1.5627 C   0  0  0  0  0  0  0  0  0  0  0  0
   -2.0855    0.5062    1.5269 C   0  0  0  0  0  0  0  0  0  0  0  0
   -2.5762    1.4209    2.4855 C   0  0  0  0  0  0  0  0  0  0  0  0
   -3.9071    1.8320    2.4799 C   0  0  0  0  0  0  0  0  0  0  0  0
   -4.7636    1.3390    1.5087 C   0  0  0  0  0  0  0  0  0  0  0  0
   -6.4058    1.8503    1.4775 Cl  0  0  0  0  0  0  0  0  0  0  0  0
   -4.2997    0.4336    0.5521 C   0  0  0  0  0  0  0  0  0  0  0  0
   -2.9602   -0.0258    0.5312 C   0  0  0  0  0  0  0  0  0  0  0  0
   -2.4512   -1.0739   -0.5750 C   0  0  0  0  0  0  0  0  0  0  0  0
   -3.4325   -1.9742   -1.3425 C   0  0  0  0  0  0  0  0  0  0  0  0
   -3.1535   -1.3054   -2.5923 O   0  0  0  0  0  0  0  0  0  0  0  0
   -2.1144   -0.5161   -1.9680 C   0  0  0  0  0  0  0  0  0  0  0  0
    0.0431    0.4185    0.4423 N   0  0  0  0  0  0  0  0  0  0  0  0
    3.6542    0.7998   -2.4811 C   0  0  0  0  0  0  0  0  0  0  0  0
    4.9476    0.6813   -2.9979 C   0  0  0  0  0  0  0  0  0  0  0  0
    6.3985   -0.9943   -0.4330 H   0  0  0  0  0  0  0  0  0  0  0  0
    4.1295   -0.7928    0.4877 H   0  0  0  0  0  0  0  0  0  0  0  0
    1.3560    0.8869   -1.3813 H   0  0  0  0  0  0  0  0  0  0  0  0
    1.8007   -1.2036    3.3685 H   0  0  0  0  0  0  0  0  0  0  0  0
   -0.6379   -0.6805    3.5656 H   0  0  0  0  0  0  0  0  0  0  0  0
   -1.9055    1.8404    3.2343 H   0  0  0  0  0  0  0  0  0  0  0  0
   -4.2593    2.5444    3.2210 H   0  0  0  0  0  0  0  0  0  0  0  0
   -4.9961    0.0850   -0.2083 H   0  0  0  0  0  0  0  0  0  0  0  0
   -1.6366   -1.6961   -0.1772 H   0  0  0  0  0  0  0  0  0  0  0  0
   -3.1472   -3.0309   -1.3891 H   0  0  0  0  0  0  0  0  0  0  0  0
   -4.4903   -1.9092   -1.0774 H   0  0  0  0  0  0  0  0  0  0  0  0
   -1.1237   -0.7813   -2.3508 H   0  0  0  0  0  0  0  0  0  0  0  0
   -2.2884    0.5549   -2.1129 H   0  0  0  0  0  0  0  0  0  0  0  0
    2.9032    1.3122   -3.0778 H   0  0  0  0  0  0  0  0  0  0  0  0
    5.1962    1.0893   -3.9723 H   0  0  0  0  0  0  0  0  0  0  0  0
  1  2  1  0
  2  3  1  0
  3  4  2  0
  4  5  1  0
  5  6  1  0
  6  7  1  0
  7  8  2  0
  8  9  1  0
  9 10  2  0
 10 11  1  0
 11 12  1  0
 12 13  1  0
 13 14  2  0
 14 15  1  0
 15 16  1  0
 15 17  2  0
 17 18  1  0
 18 19  1  0
 19 20  1  0
 20 21  1  0
 21 22  1  0
 11 23  2  0
  5 24  2  0
 24 25  1  0
 25  2  2  0
 23  7  1  0
 18 12  2  0
 22 19  1  0
  3 26  1  0
  4 27  1  0
  6 28  1  0
  9 29  1  0
 10 30  1  0
 13 31  1  0
 14 32  1  0
 17 33  1  0
 19 34  1  0
 20 35  1  0
 20 36  1  0
 22 37  1  0
 22 38  1  0
 24 39  1  0
 25 40  1  0
M  END
$$$$
