
     RDKit          3D

 51 55  0  0  0  0  0  0  0  0999 V2000
   -0.4724   -1.5853   -1.3922 O   0  0  0  0  0  0  0  0  0  0  0  0
   -1.2143   -2.0838   -0.5459 C   0  0  0  0  0  0  0  0  0  0  0  0
   -1.2696   -3.6163   -0.3862 C   0  0  0  0  0  0  0  0  0  0  0  0
   -2.0416   -4.1715    0.6682 O   0  0  0  0  0  0  0  0  0  0  0  0
   -3.2791   -3.4753    0.7870 C   0  0  0  0  0  0  0  0  0  0  0  0
   -2.9848   -2.0415    1.2055 C   0  0  0  0  0  0  0  0  0  0  0  0
   -2.1000   -1.3554    0.2565 N   0  0  0  0  0  0  0  0  0  0  0  0
   -2.0469    0.0764    0.3120 C   0  0  0  0  0  0  0  0  0  0  0  0
   -3.2682    0.7702    0.1514 C   0  0  0  0  0  0  0  0  0  0  0  0
   -3.3599    2.1737    0.1272 C   0  0  0  0  0  0  0  0  0  0  0  0
   -4.6610    2.9326   -0.0604 C   0  0  0  0  0  0  0  0  0  0  0  0
   -5.6972    2.4594   -1.0511 C   0  0  0  0  0  0  0  0  0  0  0  0
   -5.9805    2.3804    0.4219 C   0  0  0  0  0  0  0  0  0  0  0  0
   -2.1583    2.8758    0.2675 C   0  0  0  0  0  0  0  0  0  0  0  0
   -0.9379    2.2148    0.4403 C   0  0  0  0  0  0  0  0  0  0  0  0
   -0.8489    0.8091    0.4856 C   0  0  0  0  0  0  0  0  0  0  0  0
    0.4694    0.2192    0.8006 C   0  0  0  0  0  0  0  0  0  0  0  0
    0.6475   -0.7082    1.8060 C   0  0  0  0  0  0  0  0  0  0  0  0
    1.9341   -1.1379    2.0052 C   0  0  0  0  0  0  0  0  0  0  0  0
    2.9820   -0.6997    1.2892 N   0  0  0  0  0  0  0  0  0  0  0  0
    2.7363    0.2099    0.3363 C   0  0  0  0  0  0  0  0  0  0  0  0
    3.7445    0.7295   -0.4711 N   0  0  0  0  0  0  0  0  0  0  0  0
    5.1118    0.4741   -0.6094 C   0  0  0  0  0  0  0  0  0  0  0  0
    5.8277    1.1802   -1.5940 C   0  0  0  0  0  0  0  0  0  0  0  0
    7.2008    0.9890   -1.7730 C   0  0  0  0  0  0  0  0  0  0  0  0
    7.8746    0.0906   -0.9597 C   0  0  0  0  0  0  0  0  0  0  0  0
    9.1904   -0.0956   -1.1260 F   0  0  0  0  0  0  0  0  0  0  0  0
    7.2003   -0.6139    0.0264 C   0  0  0  0  0  0  0  0  0  0  0  0
    5.8257   -0.4179    0.2007 C   0  0  0  0  0  0  0  0  0  0  0  0
    1.5131    0.7029    0.0883 N   0  0  0  0  0  0  0  0  0  0  0  0
   -0.2414   -3.9683   -0.2521 H   0  0  0  0  0  0  0  0  0  0  0  0
   -1.6434   -4.0268   -1.3317 H   0  0  0  0  0  0  0  0  0  0  0  0
   -3.8278   -3.5219   -0.1612 H   0  0  0  0  0  0  0  0  0  0  0  0
   -3.8786   -3.9769    1.5529 H   0  0  0  0  0  0  0  0  0  0  0  0
   -3.9278   -1.5025    1.3304 H   0  0  0  0  0  0  0  0  0  0  0  0
   -2.4602   -2.0439    2.1686 H   0  0  0  0  0  0  0  0  0  0  0  0
   -4.1776    0.2001   -0.0214 H   0  0  0  0  0  0  0  0  0  0  0  0
   -4.5708    4.0168    0.0203 H   0  0  0  0  0  0  0  0  0  0  0  0
   -5.5286    1.5374   -1.5946 H   0  0  0  0  0  0  0  0  0  0  0  0
   -6.2192    3.2134   -1.6306 H   0  0  0  0  0  0  0  0  0  0  0  0
   -6.0151    1.4036    0.8875 H   0  0  0  0  0  0  0  0  0  0  0  0
   -6.6961    3.0817    0.8383 H   0  0  0  0  0  0  0  0  0  0  0  0
   -2.1607    3.9641    0.2441 H   0  0  0  0  0  0  0  0  0  0  0  0
   -0.0357    2.8148    0.5604 H   0  0  0  0  0  0  0  0  0  0  0  0
   -0.1656   -1.0717    2.4168 H   0  0  0  0  0  0  0  0  0  0  0  0
    2.1711   -1.8678    2.7732 H   0  0  0  0  0  0  0  0  0  0  0  0
    3.3139    1.3268   -1.1624 H   0  0  0  0  0  0  0  0  0  0  0  0
    5.3145    1.8915   -2.2372 H   0  0  0  0  0  0  0  0  0  0  0  0
    7.7424    1.5355   -2.5377 H   0  0  0  0  0  0  0  0  0  0  0  0
    7.7412   -1.3108    0.6579 H   0  0  0  0  0  0  0  0  0  0  0  0
    5.3277   -0.9807    0.9842 H   0  0  0  0  0  0  0  0  0  0  0  0
  1  2  2  0
  2  3  1  0
  3  4  1  0
  4  5  1  0
  5  6  1  0
  6  7  1  0
  7  8  1  0
  8  9  1  0
  9 10  2  0
 10 11  1  0
 11 12  1  0
 12 13  1  0
 10 14  1  0
 14 15  2  0
 15 16  1  0
 16 17  1  0
 17 18  1  0
 18 19  2  0
 19 20  1  0
 20 21  2  0
 21 22  1  0
 22 23  1  0
 23 24  1  0
 24 25  2  0
 25 26  1  0
 26 27  1  0
 26 28  2  0
 28 29  1  0
 21 30  1  0
  7  2  1  0
 16  8  2  0
 30 17  2  0
 13 11  1  0
 29 23  2  0
  3 31  1  0
  3 32  1  0
  5 33  1  0
  5 34  1  0
  6 35  1  0
  6 36  1  0
  9 37  1  0
 11 38  1  0
 12 39  1  0
 12 40  1  0
 13 41  1  0
 13 42  1  0
 14 43  1  0
 15 44  1  0
 18 45  1  0
 19 46  1  0
 22 47  1  0
 24 48  1  0
 25 49  1  0
 28 50  1  0
 29 51  1  0
M  END
$$$$
