
     RDKit          3D

 45 48  0  0  0  0  0  0  0  0999 V2000
    6.5143    0.9313   -3.0472 F   0  0  0  0  0  0  0  0  0  0  0  0
    5.6844    0.2355   -2.2594 C   0  0  0  0  0  0  0  0  0  0  0  0
    4.4711    0.7899   -1.8802 C   0  0  0  0  0  0  0  0  0  0  0  0
    3.6045    0.0626   -1.0567 C   0  0  0  0  0  0  0  0  0  0  0  0
    3.9376   -1.2223   -0.6083 C   0  0  0  0  0  0  0  0  0  0  0  0
    3.1209   -1.9936    0.2241 N   0  0  0  0  0  0  0  0  0  0  0  0
    1.8867   -1.7859    0.8328 C   0  0  0  0  0  0  0  0  0  0  0  0
    1.4186   -2.8342    1.5292 N   0  0  0  0  0  0  0  0  0  0  0  0
    0.2319   -2.6837    2.1436 C   0  0  0  0  0  0  0  0  0  0  0  0
   -0.5068   -1.5311    2.0893 C   0  0  0  0  0  0  0  0  0  0  0  0
    0.0346   -0.5034    1.3472 C   0  0  0  0  0  0  0  0  0  0  0  0
   -0.6294    0.8099    1.1987 C   0  0  0  0  0  0  0  0  0  0  0  0
    0.1400    1.9652    1.4722 C   0  0  0  0  0  0  0  0  0  0  0  0
   -0.4203    3.2393    1.4448 C   0  0  0  0  0  0  0  0  0  0  0  0
   -1.7663    3.3763    1.1477 C   0  0  0  0  0  0  0  0  0  0  0  0
   -2.4801    4.9429    1.1270 Cl  0  0  0  0  0  0  0  0  0  0  0  0
   -2.5481    2.2563    0.8564 C   0  0  0  0  0  0  0  0  0  0  0  0
   -2.0049    0.9570    0.8450 C   0  0  0  0  0  0  0  0  0  0  0  0
   -2.7840   -0.1566    0.4925 N   0  0  0  0  0  0  0  0  0  0  0  0
   -2.3803   -0.8421   -0.7646 C   0  0  0  0  0  0  0  0  0  0  0  0
   -3.2072   -0.3399   -1.9574 C   0  0  0  0  0  0  0  0  0  0  0  0
   -4.6140   -0.5072   -1.7211 O   0  0  0  0  0  0  0  0  0  0  0  0
   -5.0164    0.2577   -0.5756 C   0  0  0  0  0  0  0  0  0  0  0  0
   -4.2500   -0.1610    0.6907 C   0  0  0  0  0  0  0  0  0  0  0  0
    1.2317   -0.6227    0.7284 N   0  0  0  0  0  0  0  0  0  0  0  0
    5.1776   -1.7540   -1.0082 C   0  0  0  0  0  0  0  0  0  0  0  0
    6.0476   -1.0320   -1.8304 C   0  0  0  0  0  0  0  0  0  0  0  0
    4.2007    1.7832   -2.2232 H   0  0  0  0  0  0  0  0  0  0  0  0
    2.6620    0.5251   -0.7798 H   0  0  0  0  0  0  0  0  0  0  0  0
    3.4317   -2.9298    0.4385 H   0  0  0  0  0  0  0  0  0  0  0  0
   -0.1175   -3.5480    2.7002 H   0  0  0  0  0  0  0  0  0  0  0  0
   -1.4585   -1.4397    2.5950 H   0  0  0  0  0  0  0  0  0  0  0  0
    1.1944    1.8607    1.7284 H   0  0  0  0  0  0  0  0  0  0  0  0
    0.1943    4.1072    1.6659 H   0  0  0  0  0  0  0  0  0  0  0  0
   -3.5909    2.4246    0.6139 H   0  0  0  0  0  0  0  0  0  0  0  0
   -2.5706   -1.9135   -0.6259 H   0  0  0  0  0  0  0  0  0  0  0  0
   -1.3158   -0.7284   -0.9930 H   0  0  0  0  0  0  0  0  0  0  0  0
   -3.0007    0.7156   -2.1707 H   0  0  0  0  0  0  0  0  0  0  0  0
   -2.9532   -0.9173   -2.8520 H   0  0  0  0  0  0  0  0  0  0  0  0
   -4.8849    1.3202   -0.8038 H   0  0  0  0  0  0  0  0  0  0  0  0
   -6.0877    0.0883   -0.4268 H   0  0  0  0  0  0  0  0  0  0  0  0
   -4.5470    0.4478    1.5522 H   0  0  0  0  0  0  0  0  0  0  0  0
   -4.5309   -1.1941    0.9320 H   0  0  0  0  0  0  0  0  0  0  0  0
    5.4799   -2.7450   -0.6776 H   0  0  0  0  0  0  0  0  0  0  0  0
    7.0011   -1.4511   -2.1339 H   0  0  0  0  0  0  0  0  0  0  0  0
  1  2  1  0
  2  3  1  0
  3  4  2  0
  4  5  1  0
  5  6  1  0
  6  7  1  0
  7  8  2  0
  8  9  1  0
  9 10  2  0
 10 11  1  0
 11 12  1  0
 12 13  1  0
 13 14  2  0
 14 15  1  0
 15 16  1  0
 15 17  2  0
 17 18  1  0
 18 19  1  0
 19 20  1  0
 20 21  1  0
 21 22  1  0
 22 23  1  0
 23 24  1  0
 11 25  2  0
  5 26  2  0
 26 27  1  0
 27  2  2  0
 25  7  1  0
 18 12  2  0
 24 19  1  0
  3 28  1  0
  4 29  1  0
  6 30  1  0
  9 31  1  0
 10 32  1  0
 13 33  1  0
 14 34  1  0
 17 35  1  0
 20 36  1  0
 20 37  1  0
 21 38  1  0
 21 39  1  0
 23 40  1  0
 23 41  1  0
 24 42  1  0
 24 43  1  0
 26 44  1  0
 27 45  1  0
M  END
$$$$
