
     RDKit          3D

 52 55  0  0  0  0  0  0  0  0999 V2000
   -2.8889    0.8812    3.9209 C   0  0  0  0  0  0  0  0  0  0  0  0
   -2.5645    0.3700    2.5398 C   0  0  0  0  0  0  0  0  0  0  0  0
   -1.5259   -0.2390    2.3176 O   0  0  0  0  0  0  0  0  0  0  0  0
   -3.5733    0.6537    1.6316 N   0  0  0  0  0  0  0  0  0  0  0  0
   -3.5729    0.2921    0.2598 C   0  0  0  0  0  0  0  0  0  0  0  0
   -4.8315   -0.0987   -0.2459 C   0  0  0  0  0  0  0  0  0  0  0  0
   -5.0154   -0.5547   -1.5615 C   0  0  0  0  0  0  0  0  0  0  0  0
   -6.3796   -0.9668   -2.0590 C   0  0  0  0  0  0  0  0  0  0  0  0
   -7.0889   -2.1360   -1.4109 C   0  0  0  0  0  0  0  0  0  0  0  0
   -6.5682   -2.2635   -2.8116 C   0  0  0  0  0  0  0  0  0  0  0  0
   -3.8895   -0.5833   -2.3857 C   0  0  0  0  0  0  0  0  0  0  0  0
   -2.6421   -0.1587   -1.9187 C   0  0  0  0  0  0  0  0  0  0  0  0
   -2.4534    0.3155   -0.6021 C   0  0  0  0  0  0  0  0  0  0  0  0
   -1.1378    0.9069   -0.2832 C   0  0  0  0  0  0  0  0  0  0  0  0
   -1.0100    2.1687    0.2610 C   0  0  0  0  0  0  0  0  0  0  0  0
    0.2732    2.6135    0.4469 C   0  0  0  0  0  0  0  0  0  0  0  0
    1.3620    1.8966    0.1236 N   0  0  0  0  0  0  0  0  0  0  0  0
    1.1605    0.6823   -0.4080 C   0  0  0  0  0  0  0  0  0  0  0  0
    2.2161   -0.1572   -0.7585 N   0  0  0  0  0  0  0  0  0  0  0  0
    3.6035   -0.0859   -0.6072 C   0  0  0  0  0  0  0  0  0  0  0  0
    4.2818    1.0581   -0.1677 C   0  0  0  0  0  0  0  0  0  0  0  0
    5.6746    1.0702   -0.0298 C   0  0  0  0  0  0  0  0  0  0  0  0
    6.4082   -0.0786   -0.3355 C   0  0  0  0  0  0  0  0  0  0  0  0
    8.1709   -0.0676   -0.1237 S   0  0  0  0  0  0  0  0  0  0  0  0
    8.3703   -0.1754    1.6374 C   0  0  0  0  0  0  0  0  0  0  0  0
    8.6526    1.2302   -0.5584 O   0  0  0  0  0  0  0  0  0  0  0  0
    8.6971   -1.2906   -0.7013 O   0  0  0  0  0  0  0  0  0  0  0  0
    5.7661   -1.2216   -0.8074 C   0  0  0  0  0  0  0  0  0  0  0  0
    4.3730   -1.2167   -0.9406 C   0  0  0  0  0  0  0  0  0  0  0  0
   -0.0585    0.1757   -0.6497 N   0  0  0  0  0  0  0  0  0  0  0  0
   -2.9086    1.9741    3.9126 H   0  0  0  0  0  0  0  0  0  0  0  0
   -2.1232    0.5477    4.6273 H   0  0  0  0  0  0  0  0  0  0  0  0
   -3.8568    0.4949    4.2503 H   0  0  0  0  0  0  0  0  0  0  0  0
   -4.4876    0.7851    2.0499 H   0  0  0  0  0  0  0  0  0  0  0  0
   -5.7036   -0.0903    0.4066 H   0  0  0  0  0  0  0  0  0  0  0  0
   -7.0169   -0.1417   -2.3784 H   0  0  0  0  0  0  0  0  0  0  0  0
   -6.5799   -2.6994   -0.6370 H   0  0  0  0  0  0  0  0  0  0  0  0
   -8.1630   -2.0601   -1.2714 H   0  0  0  0  0  0  0  0  0  0  0  0
   -5.7153   -2.9121   -2.9724 H   0  0  0  0  0  0  0  0  0  0  0  0
   -7.2883   -2.2743   -3.6217 H   0  0  0  0  0  0  0  0  0  0  0  0
   -3.9780   -0.9253   -3.4141 H   0  0  0  0  0  0  0  0  0  0  0  0
   -1.7995   -0.1664   -2.6138 H   0  0  0  0  0  0  0  0  0  0  0  0
   -1.8627    2.7808    0.5193 H   0  0  0  0  0  0  0  0  0  0  0  0
    0.4728    3.5935    0.8708 H   0  0  0  0  0  0  0  0  0  0  0  0
    1.8252   -1.0482   -1.0285 H   0  0  0  0  0  0  0  0  0  0  0  0
    3.7378    1.9678    0.0764 H   0  0  0  0  0  0  0  0  0  0  0  0
    6.1680    1.9789    0.3088 H   0  0  0  0  0  0  0  0  0  0  0  0
    7.8965   -1.0922    1.9928 H   0  0  0  0  0  0  0  0  0  0  0  0
    9.4401   -0.2019    1.8556 H   0  0  0  0  0  0  0  0  0  0  0  0
    7.9200    0.7027    2.1053 H   0  0  0  0  0  0  0  0  0  0  0  0
    6.3286   -2.1157   -1.0701 H   0  0  0  0  0  0  0  0  0  0  0  0
    3.8848   -2.1186   -1.3063 H   0  0  0  0  0  0  0  0  0  0  0  0
  1  2  1  0
  2  3  2  0
  2  4  1  0
  4  5  1  0
  5  6  1  0
  6  7  2  0
  7  8  1  0
  8  9  1  0
  9 10  1  0
  7 11  1  0
 11 12  2  0
 12 13  1  0
 13 14  1  0
 14 15  1  0
 15 16  2  0
 16 17  1  0
 17 18  2  0
 18 19  1  0
 19 20  1  0
 20 21  1  0
 21 22  2  0
 22 23  1  0
 23 24  1  0
 24 25  1  0
 24 26  2  0
 24 27  2  0
 23 28  2  0
 28 29  1  0
 18 30  1  0
 13  5  2  0
 30 14  2  0
 10  8  1  0
 29 20  2  0
  1 31  1  0
  1 32  1  0
  1 33  1  0
  4 34  1  0
  6 35  1  0
  8 36  1  0
  9 37  1  0
  9 38  1  0
 10 39  1  0
 10 40  1  0
 11 41  1  0
 12 42  1  0
 15 43  1  0
 16 44  1  0
 19 45  1  0
 21 46  1  0
 22 47  1  0
 25 48  1  0
 25 49  1  0
 25 50  1  0
 28 51  1  0
 29 52  1  0
M  END
$$$$
