
     RDKit          3D

 68 72  0  0  0  0  0  0  0  0999 V2000
    8.8446   -1.8214    2.1805 C   0  0  0  0  0  0  0  0  0  0  0  0
    9.0156   -0.3882    1.9846 N   0  0  0  0  0  0  0  0  0  0  0  0
    8.8565    0.2378    0.4340 S   0  0  0  0  0  0  0  0  0  0  0  0
    9.3189   -0.7614   -0.5029 O   0  0  0  0  0  0  0  0  0  0  0  0
    9.4278    1.5663    0.4754 O   0  0  0  0  0  0  0  0  0  0  0  0
    7.0996    0.4125    0.2828 C   0  0  0  0  0  0  0  0  0  0  0  0
    6.4518    1.4339    0.9761 C   0  0  0  0  0  0  0  0  0  0  0  0
    5.0676    1.5812    0.8459 C   0  0  0  0  0  0  0  0  0  0  0  0
    4.3109    0.7263    0.0239 C   0  0  0  0  0  0  0  0  0  0  0  0
    2.9330    0.9406   -0.0643 N   0  0  0  0  0  0  0  0  0  0  0  0
    1.8972    0.3447   -0.7780 C   0  0  0  0  0  0  0  0  0  0  0  0
    2.1022   -0.6810   -1.6163 N   0  0  0  0  0  0  0  0  0  0  0  0
    1.0316   -1.1668   -2.2680 C   0  0  0  0  0  0  0  0  0  0  0  0
   -0.2378   -0.6757   -2.1102 C   0  0  0  0  0  0  0  0  0  0  0  0
   -0.3736    0.3641   -1.2145 C   0  0  0  0  0  0  0  0  0  0  0  0
   -1.6746    1.0071   -0.9420 C   0  0  0  0  0  0  0  0  0  0  0  0
   -1.7454    2.4110   -1.0847 C   0  0  0  0  0  0  0  0  0  0  0  0
   -2.9471    3.1039   -0.9573 C   0  0  0  0  0  0  0  0  0  0  0  0
   -4.1269    2.4120   -0.6919 C   0  0  0  0  0  0  0  0  0  0  0  0
   -5.4589    3.1284   -0.5535 C   0  0  0  0  0  0  0  0  0  0  0  0
   -5.8313    3.8885   -1.8295 C   0  0  0  0  0  0  0  0  0  0  0  0
   -5.4648    4.0629    0.6590 C   0  0  0  0  0  0  0  0  0  0  0  0
   -4.0622    1.0160   -0.5304 C   0  0  0  0  0  0  0  0  0  0  0  0
   -2.8572    0.2848   -0.6184 C   0  0  0  0  0  0  0  0  0  0  0  0
   -2.8382   -1.0971   -0.3811 N   0  0  0  0  0  0  0  0  0  0  0  0
   -2.0051   -1.5479    0.7594 C   0  0  0  0  0  0  0  0  0  0  0  0
   -2.4789   -2.9534    1.1924 C   0  0  0  0  0  0  0  0  0  0  0  0
   -2.5021   -3.8751   -0.0409 C   0  0  0  0  0  0  0  0  0  0  0  0
   -3.4654   -3.3097   -1.0969 C   0  0  0  0  0  0  0  0  0  0  0  0
   -4.0194   -1.9492   -0.6254 C   0  0  0  0  0  0  0  0  0  0  0  0
   -4.8013   -2.1603    0.6867 C   0  0  0  0  0  0  0  0  0  0  0  0
   -3.9094   -2.8338    1.7367 C   0  0  0  0  0  0  0  0  0  0  0  0
    0.6892    0.8856   -0.5571 N   0  0  0  0  0  0  0  0  0  0  0  0
    4.9916   -0.2820   -0.6696 C   0  0  0  0  0  0  0  0  0  0  0  0
    6.3774   -0.4428   -0.5477 C   0  0  0  0  0  0  0  0  0  0  0  0
    8.6603   -2.0150    3.2419 H   0  0  0  0  0  0  0  0  0  0  0  0
    9.7543   -2.3539    1.8904 H   0  0  0  0  0  0  0  0  0  0  0  0
    7.9916   -2.2077    1.6168 H   0  0  0  0  0  0  0  0  0  0  0  0
    9.7196    0.1019    2.5352 H   0  0  0  0  0  0  0  0  0  0  0  0
    7.0121    2.1166    1.6105 H   0  0  0  0  0  0  0  0  0  0  0  0
    4.5800    2.3860    1.3920 H   0  0  0  0  0  0  0  0  0  0  0  0
    2.5434    1.6832    0.4969 H   0  0  0  0  0  0  0  0  0  0  0  0
    1.2337   -1.9935   -2.9426 H   0  0  0  0  0  0  0  0  0  0  0  0
   -1.0821   -1.0867   -2.6462 H   0  0  0  0  0  0  0  0  0  0  0  0
   -0.8421    2.9727   -1.3209 H   0  0  0  0  0  0  0  0  0  0  0  0
   -2.9477    4.1838   -1.0797 H   0  0  0  0  0  0  0  0  0  0  0  0
   -6.2446    2.3790   -0.3886 H   0  0  0  0  0  0  0  0  0  0  0  0
   -5.1267    4.6993   -2.0453 H   0  0  0  0  0  0  0  0  0  0  0  0
   -5.8429    3.2166   -2.6955 H   0  0  0  0  0  0  0  0  0  0  0  0
   -6.8288    4.3329   -1.7362 H   0  0  0  0  0  0  0  0  0  0  0  0
   -5.2178    3.5159    1.5762 H   0  0  0  0  0  0  0  0  0  0  0  0
   -6.4543    4.5132    0.7934 H   0  0  0  0  0  0  0  0  0  0  0  0
   -4.7402    4.8776    0.5522 H   0  0  0  0  0  0  0  0  0  0  0  0
   -4.9880    0.4980   -0.3004 H   0  0  0  0  0  0  0  0  0  0  0  0
   -2.0867   -0.8529    1.6050 H   0  0  0  0  0  0  0  0  0  0  0  0
   -0.9519   -1.6111    0.4710 H   0  0  0  0  0  0  0  0  0  0  0  0
   -1.8129   -3.3593    1.9614 H   0  0  0  0  0  0  0  0  0  0  0  0
   -1.4946   -3.9594   -0.4654 H   0  0  0  0  0  0  0  0  0  0  0  0
   -2.8121   -4.8886    0.2409 H   0  0  0  0  0  0  0  0  0  0  0  0
   -4.2872   -4.0148   -1.2683 H   0  0  0  0  0  0  0  0  0  0  0  0
   -2.9394   -3.1973   -2.0522 H   0  0  0  0  0  0  0  0  0  0  0  0
   -4.6659   -1.5388   -1.4090 H   0  0  0  0  0  0  0  0  0  0  0  0
   -5.1685   -1.2105    1.0875 H   0  0  0  0  0  0  0  0  0  0  0  0
   -5.6850   -2.7824    0.5021 H   0  0  0  0  0  0  0  0  0  0  0  0
   -3.9184   -2.2473    2.6629 H   0  0  0  0  0  0  0  0  0  0  0  0
   -4.3059   -3.8249    1.9875 H   0  0  0  0  0  0  0  0  0  0  0  0
    4.4577   -0.9633   -1.3265 H   0  0  0  0  0  0  0  0  0  0  0  0
    6.8745   -1.2313   -1.1080 H   0  0  0  0  0  0  0  0  0  0  0  0
  1  2  1  0
  2  3  1  0
  3  4  2  0
  3  5  2  0
  3  6  1  0
  6  7  1  0
  7  8  2  0
  8  9  1  0
  9 10  1  0
 10 11  1  0
 11 12  2  0
 12 13  1  0
 13 14  2  0
 14 15  1  0
 15 16  1  0
 16 17  1  0
 17 18  2  0
 18 19  1  0
 19 20  1  0
 20 21  1  0
 20 22  1  0
 19 23  2  0
 23 24  1  0
 24 25  1  0
 25 26  1  0
 26 27  1  0
 27 28  1  0
 28 29  1  0
 29 30  1  0
 30 31  1  0
 31 32  1  0
 15 33  2  0
  9 34  2  0
 34 35  1  0
 35  6  2  0
 33 11  1  0
 24 16  2  0
 30 25  1  0
 32 27  1  0
  1 36  1  0
  1 37  1  0
  1 38  1  0
  2 39  1  0
  7 40  1  0
  8 41  1  0
 10 42  1  0
 13 43  1  0
 14 44  1  0
 17 45  1  0
 18 46  1  0
 20 47  1  0
 21 48  1  0
 21 49  1  0
 21 50  1  0
 22 51  1  0
 22 52  1  0
 22 53  1  0
 23 54  1  0
 26 55  1  0
 26 56  1  0
 27 57  1  0
 28 58  1  0
 28 59  1  0
 29 60  1  0
 29 61  1  0
 30 62  1  0
 31 63  1  0
 31 64  1  0
 32 65  1  0
 32 66  1  0
 34 67  1  0
 35 68  1  0
M  END
$$$$
