
     RDKit          3D

 51 54  0  0  0  0  0  0  0  0999 V2000
    7.6397   -1.3453    2.6415 C   0  0  0  0  0  0  0  0  0  0  0  0
    7.7191   -0.7780    0.9636 S   0  0  0  0  0  0  0  0  0  0  0  0
    8.0646   -1.9066    0.1213 O   0  0  0  0  0  0  0  0  0  0  0  0
    8.5110    0.4375    0.9384 O   0  0  0  0  0  0  0  0  0  0  0  0
    6.0372   -0.3384    0.6050 C   0  0  0  0  0  0  0  0  0  0  0  0
    5.6218    0.9846    0.7330 C   0  0  0  0  0  0  0  0  0  0  0  0
    4.2942    1.3157    0.4435 C   0  0  0  0  0  0  0  0  0  0  0  0
    3.3706    0.3466    0.0103 C   0  0  0  0  0  0  0  0  0  0  0  0
    2.0491    0.7439   -0.2226 N   0  0  0  0  0  0  0  0  0  0  0  0
    0.8917    0.0694   -0.6034 C   0  0  0  0  0  0  0  0  0  0  0  0
    0.8376   -1.2679   -0.6568 N   0  0  0  0  0  0  0  0  0  0  0  0
   -0.3237   -1.8255   -1.0372 C   0  0  0  0  0  0  0  0  0  0  0  0
   -1.4378   -1.0994   -1.3610 C   0  0  0  0  0  0  0  0  0  0  0  0
   -1.3140    0.2707   -1.2658 C   0  0  0  0  0  0  0  0  0  0  0  0
   -2.4225    1.1892   -1.6058 C   0  0  0  0  0  0  0  0  0  0  0  0
   -2.1497    2.2453   -2.5058 C   0  0  0  0  0  0  0  0  0  0  0  0
   -3.1527    3.1037   -2.9498 C   0  0  0  0  0  0  0  0  0  0  0  0
   -4.4502    2.9166   -2.5000 C   0  0  0  0  0  0  0  0  0  0  0  0
   -5.7022    3.9642   -3.0487 Cl  0  0  0  0  0  0  0  0  0  0  0  0
   -4.7490    1.8939   -1.5978 C   0  0  0  0  0  0  0  0  0  0  0  0
   -3.7521    1.0245   -1.1147 C   0  0  0  0  0  0  0  0  0  0  0  0
   -4.0536    0.0459   -0.1556 N   0  0  0  0  0  0  0  0  0  0  0  0
   -3.4229    0.2493    1.1760 C   0  0  0  0  0  0  0  0  0  0  0  0
   -4.4710    0.1658    2.2986 C   0  0  0  0  0  0  0  0  0  0  0  0
   -5.1800   -1.0835    2.3214 O   0  0  0  0  0  0  0  0  0  0  0  0
   -5.4217   -1.6227    1.0101 C   0  0  0  0  0  0  0  0  0  0  0  0
   -5.3953   -0.5654   -0.1057 C   0  0  0  0  0  0  0  0  0  0  0  0
   -0.1523    0.8606   -0.8949 N   0  0  0  0  0  0  0  0  0  0  0  0
    3.8214   -0.9740   -0.1099 C   0  0  0  0  0  0  0  0  0  0  0  0
    5.1474   -1.3207    0.1730 C   0  0  0  0  0  0  0  0  0  0  0  0
    6.9480   -2.1877    2.7003 H   0  0  0  0  0  0  0  0  0  0  0  0
    8.6404   -1.6679    2.9389 H   0  0  0  0  0  0  0  0  0  0  0  0
    7.3098   -0.5251    3.2846 H   0  0  0  0  0  0  0  0  0  0  0  0
    6.3147    1.7611    1.0497 H   0  0  0  0  0  0  0  0  0  0  0  0
    3.9819    2.3515    0.5595 H   0  0  0  0  0  0  0  0  0  0  0  0
    1.8717    1.7365   -0.2718 H   0  0  0  0  0  0  0  0  0  0  0  0
   -0.3299   -2.9112   -1.0705 H   0  0  0  0  0  0  0  0  0  0  0  0
   -2.3576   -1.5781   -1.6688 H   0  0  0  0  0  0  0  0  0  0  0  0
   -1.1350    2.3872   -2.8775 H   0  0  0  0  0  0  0  0  0  0  0  0
   -2.9136    3.9031   -3.6455 H   0  0  0  0  0  0  0  0  0  0  0  0
   -5.7734    1.8102   -1.2500 H   0  0  0  0  0  0  0  0  0  0  0  0
   -2.6879   -0.5498    1.3269 H   0  0  0  0  0  0  0  0  0  0  0  0
   -2.9028    1.2129    1.2443 H   0  0  0  0  0  0  0  0  0  0  0  0
   -5.2112    0.9664    2.1996 H   0  0  0  0  0  0  0  0  0  0  0  0
   -3.9894    0.2868    3.2744 H   0  0  0  0  0  0  0  0  0  0  0  0
   -6.3951   -2.1246    1.0305 H   0  0  0  0  0  0  0  0  0  0  0  0
   -4.6587   -2.3885    0.8257 H   0  0  0  0  0  0  0  0  0  0  0  0
   -5.6205   -1.0417   -1.0665 H   0  0  0  0  0  0  0  0  0  0  0  0
   -6.1647    0.1858    0.1054 H   0  0  0  0  0  0  0  0  0  0  0  0
    3.1516   -1.7623   -0.4404 H   0  0  0  0  0  0  0  0  0  0  0  0
    5.4670   -2.3520    0.0511 H   0  0  0  0  0  0  0  0  0  0  0  0
  1  2  1  0
  2  3  2  0
  2  4  2  0
  2  5  1  0
  5  6  1  0
  6  7  2  0
  7  8  1  0
  8  9  1  0
  9 10  1  0
 10 11  2  0
 11 12  1  0
 12 13  2  0
 13 14  1  0
 14 15  1  0
 15 16  1  0
 16 17  2  0
 17 18  1  0
 18 19  1  0
 18 20  2  0
 20 21  1  0
 21 22  1  0
 22 23  1  0
 23 24  1  0
 24 25  1  0
 25 26  1  0
 26 27  1  0
 14 28  2  0
  8 29  2  0
 29 30  1  0
 30  5  2  0
 28 10  1  0
 21 15  2  0
 27 22  1  0
  1 31  1  0
  1 32  1  0
  1 33  1  0
  6 34  1  0
  7 35  1  0
  9 36  1  0
 12 37  1  0
 13 38  1  0
 16 39  1  0
 17 40  1  0
 20 41  1  0
 23 42  1  0
 23 43  1  0
 24 44  1  0
 24 45  1  0
 26 46  1  0
 26 47  1  0
 27 48  1  0
 27 49  1  0
 29 50  1  0
 30 51  1  0
M  END
$$$$
